/*---------------------------------------------------------------------------*\
  =========                 |
  \\      /  F ield         | OpenFOAM: The Open Source CFD Toolbox
   \\    /   O peration     | Website:  https://openfoam.org
    \\  /    A nd           | Version:  8
     \\/     M anipulation  |
\*---------------------------------------------------------------------------*/
Build  : 8-d1f453a9efe6
Exec   : biomassGasificationFoam
Date   : Jan 23 2021
Time   : 14:53:52
Host   : "barhoszzhost"
PID    : 2878
I/O    : uncollated
Case   : /home/barhoszz/OpenFOAM/barhoszz-8/biomassGasificationFoam/Ichf
nProcs : 1
sigFpe : Enabling floating point exception trapping (FOAM_SIGFPE).
fileModificationChecking : Monitoring run-time modified files using timeStampMaster (fileModificationSkew 10)
allowSystemOperations : Allowing user-supplied system call operations

// * * * * * * * * * * * * * * * * * * * * * * * * * * * * * * * * * * * * * //
Create time

Create mesh for time = 0


PIMPLE: No convergence criteria found


PIMPLE: No corrector convergence criteria found
        Calculations will do 2 corrections


PIMPLE: Operating solver in transient mode with 2 outer correctors


Reading thermophysical properties

Selecting thermodynamics package 
{
    type            hePsiThermo;
    mixture         multiComponentMixture;
    transport       sutherland;
    thermo          janaf;
    energy          sensibleEnthalpy;
    equationOfState perfectGas;
    specie          specie;
}

Reading field U

Reading/calculating face flux field phi

Creating turbulence model.

Selecting turbulence model type laminar
Selecting laminar stress model Stokes
Creating thermophysical transport model

Selecting thermophysical transport type laminar
Selecting default laminar thermophysical transport model Fourier
Creating reaction model

Combustion model not active: combustionProperties not found
Selecting combustion model none
Creating field dpdt

Creating field kinetic energy K

Reading field Df

Reading field porosityF


Reading g
No MRF models present

No finite volume options present
Creating porous zones

Reading solid termophysical properties

Creating pyrolysis model
Selecting heterogeneousPyrolysisModel volPyrolysis
Selecting chemistry solver for solid phase 
{
    solver          solidOde;
    method          ODESolidHeterogeneousChemistryModel;
    solidThermoType const<constRad<constThermo<constRho>>>;
}

basicSolidNew
gases in gas phase: 9 

targas 
gas 
CO 
H2O 
N2 
O2 
CO2 
CH4 
H2 
gases from pyrolysis: 
targas 
gas 
CO 
H2O 
N2 
O2 
CO2 
CH4 
H2 
ODESolidHeterogeneousChemistryModel: Number of solids = 9 and reactions = 5
Number of gases from pyrolysis = 9
Reaction 0
irreversibleSolidArrheniusHeterogeneousReaction
    slhs 1 srhs 0 glhs 0 grhs 1
 + 1 hum =  + 1 H2O
    Reaction order: 1(1)
 Energy of reaction (if applicable): 2256000 J/kg 
(13.6 6000 301)
Reaction 1
irreversibleSolidArrheniusHeterogeneousReaction
    slhs 1 srhs 1 glhs 0 grhs 1
 + 1 wood =  + 0.48 char1 + 0.52 CH4
    Reaction order: 1(3.94)
 Energy of reaction (if applicable): 400000 J/kg 
(27000 9200 300)
Reaction 2
irreversibleSolidArrheniusHeterogeneousReaction
    slhs 1 srhs 1 glhs 1 grhs 1
 + 1 wood + 0.1 O2 =  + 0.29 char + 0.81 CO2
    Reaction order: 2(2.93 0.73)
 Energy of reaction (if applicable): -1300000 J/kg 
(2200000 10000 300)
Reaction 3
irreversibleSolidArrheniusHeterogeneousReaction
    slhs 1 srhs 1 glhs 1 grhs 1
 + 1 char + 1.1 O2 =  + 0.4 ash + 1.7 CO2
    Reaction order: 2(1.62 10.69)
 Energy of reaction (if applicable): -18300000 J/kg 
(2.08e+10 19100 300)
Reaction 4
irreversibleSolidArrheniusHeterogeneousReaction
    slhs 1 srhs 1 glhs 1 grhs 1
 + 1 char1 + 1.2 O2 =  + 0.25 ash + 1.95 CO2
    Reaction order: 2(1.24 10.53)
 Energy of reaction (if applicable): -19800000 J/kg 
(3.52e+10 16700 300)
solidReactionEnergyFromEnthalpy false
stoichiometricReactions false
Selecting ODE solver SIBS
Selecting heatTransfer model type constHTC
Selecting heterogeneousRadiationModel heterogeneousP1
Selecting heterogeneousAbsorptionEmissionModel heterogeneousConstantAbsorptionEmission
Selecting scatterModel constant
Courant Number mean: 0 max: 0

Starting time loop

Courant Number mean: 0 max: 0
!@!@!@!@!!@!@ pyrolysisZone.maxTime():1
deltaT = 0.0011111111
Time = 0.00111111

DICPCG:  Solving for G, Initial residual = 1, Final residual = 0.015558481, No Iterations 2
diagonal:  Solving for Ywood, Initial residual = 0, Final residual = 0, No Iterations 0
diagonal:  Solving for Yhum, Initial residual = 0, Final residual = 0, No Iterations 0
diagonal:  Solving for Yash, Initial residual = 0, Final residual = 0, No Iterations 0
diagonal:  Solving for Ychar1, Initial residual = 0, Final residual = 0, No Iterations 0
diagonal:  Solving for Ychar, Initial residual = 0, Final residual = 0, No Iterations 0
diagonal:  Solving for Ytarsolid, Initial residual = 0, Final residual = 0, No Iterations 0
diagonal:  Solving for Ylig, Initial residual = 0, Final residual = 0, No Iterations 0
diagonal:  Solving for Ycel, Initial residual = 0, Final residual = 0, No Iterations 0
diagonal:  Solving for Yhem, Initial residual = 0, Final residual = 0, No Iterations 0
  Evolve porosity porosity Source max/min 0.029336973 / 0
diagonal:  Solving for porosityF, Initial residual = 0, Final residual = 0, No Iterations 0
DICPCG:  Solving for Ts, Initial residual = 2.106635e-06, Final residual = 3.6777643e-15, No Iterations 1
 pyrolysis min/max(T) = 599.99877, 599.99878
DICPCG:  Solving for Ts, Initial residual = 2.6539899e-10, Final residual = 2.6539899e-10, No Iterations 0
 pyrolysis min/max(T) = 599.99877, 599.99878

Pyrolysis: 
Total gas mass produced  [kg] = 8.2298667e-05
Total solid mass lost    [kg] = -8.2298667e-05
Total realese of pyrolysis gases  [kg/s] = 0.0740688
Total heat release rate [J/s] = 127548.97

PIMPLE: Iteration 1
DILUPBiCG:  Solving for targas, Initial residual = 0, Final residual = 0, No Iterations 0
DILUPBiCG:  Solving for gas, Initial residual = 0, Final residual = 0, No Iterations 0
DILUPBiCG:  Solving for CO, Initial residual = 0, Final residual = 0, No Iterations 0
DILUPBiCG:  Solving for H2O, Initial residual = 0, Final residual = 0, No Iterations 0
DILUPBiCG:  Solving for N2, Initial residual = 0.00010895606, Final residual = 8.3188544e-14, No Iterations 1
DILUPBiCG:  Solving for O2, Initial residual = 1, Final residual = 1.3036284e-08, No Iterations 1
DILUPBiCG:  Solving for CO2, Initial residual = 1, Final residual = 1.3036284e-08, No Iterations 1
DILUPBiCG:  Solving for CH4, Initial residual = 1, Final residual = 1.3036284e-08, No Iterations 1
DILUPBiCG:  Solving for H2, Initial residual = 0, Final residual = 0, No Iterations 0
 gas  targas Srho min/max   = 0, 00 max Y = 0
 gas  gas Srho min/max   = 0, 00 max Y = 0
 gas  CO Srho min/max   = 0, 00 max Y = 0
 gas  H2O Srho min/max   = 0, 00 max Y = 0
 gas  N2 Srho min/max   = 0, 00.79 max Y = 0.79
 gas  O2 Srho min/max   = -2.3300634, 00.2048311 max Y = 0.21
 gas  CO2 Srho min/max   = 0, 18.8735130 max Y = 0.041868054
 gas  CH4 Srho min/max   = 0, 1.93884280 max Y = 0.0043010314
 gas  H2 Srho min/max   = 0, 00 max Y = 0
 rho gas min/max = 1.1685219, 1.1685219
 Sh gas min/max = 0, 0
 porosity min/max = 0.3000326, 1
 heatUpGas min/max = 0, 7762563
 heatTransfer min/max = 0, 14999939
DILUPBiCG:  Solving for h, Initial residual = 1, Final residual = 2.7290666e-08, No Iterations 1
 hs min/max = 1870.0181, 73900.287
 T gas min/max   = 299.99724, 370.75761
diagonal:  Solving for rho, Initial residual = 0, Final residual = 0, No Iterations 0
DILUPBiCG:  Solving for Ux, Initial residual = 0.99999992, Final residual = 2.5904824e-10, No Iterations 1
DILUPBiCG:  Solving for Uy, Initial residual = 1, Final residual = 2.9564599e-10, No Iterations 1
DICPCG:  Solving for p, Initial residual = 1, Final residual = 0.043655334, No Iterations 27
DICPCG:  Solving for p, Initial residual = 0.004276288, Final residual = 0.00019719144, No Iterations 17
diagonal:  Solving for rho, Initial residual = 0, Final residual = 0, No Iterations 0
time step continuity errors : sum local = 0.0020421761, global = 0.002040863, cumulative = 0.002040863
DICPCG:  Solving for p, Initial residual = 0.18575673, Final residual = 0.0081127417, No Iterations 27
DICPCG:  Solving for p, Initial residual = 0.0029942724, Final residual = 2.7708281e-05, No Iterations 25
diagonal:  Solving for rho, Initial residual = 0, Final residual = 0, No Iterations 0
time step continuity errors : sum local = 0.0020421579, global = 0.0020408122, cumulative = 0.0040816751
PIMPLE: Iteration 2
DILUPBiCG:  Solving for targas, Initial residual = 0, Final residual = 0, No Iterations 0
DILUPBiCG:  Solving for gas, Initial residual = 0, Final residual = 0, No Iterations 0
DILUPBiCG:  Solving for CO, Initial residual = 0, Final residual = 0, No Iterations 0
DILUPBiCG:  Solving for H2O, Initial residual = 0, Final residual = 0, No Iterations 0
DILUPBiCG:  Solving for N2, Initial residual = 1, Final residual = 1.4498567e-06, No Iterations 2
DILUPBiCG:  Solving for O2, Initial residual = 0.04648883, Final residual = 9.825079e-08, No Iterations 2
DILUPBiCG:  Solving for CO2, Initial residual = 0.015485611, Final residual = 5.8923162e-08, No Iterations 2
DILUPBiCG:  Solving for CH4, Initial residual = 0.015485611, Final residual = 5.8923162e-08, No Iterations 2
DILUPBiCG:  Solving for H2, Initial residual = 0, Final residual = 0, No Iterations 0
 gas  targas Srho min/max   = 0, 00 max Y = 0
 gas  gas Srho min/max   = 0, 00 max Y = 0
 gas  CO Srho min/max   = 0, 00 max Y = 0
 gas  H2O Srho min/max   = 0, 00 max Y = 0
 gas  N2 Srho min/max   = 0, 00.75392821 max Y = 0.79438425
 gas  O2 Srho min/max   = -2.3300634, 00.19437654 max Y = 0.21116488
 gas  CO2 Srho min/max   = 0, 18.8735130 max Y = 0.049019239
 gas  CH4 Srho min/max   = 0, 1.93884280 max Y = 0.0050356601
 gas  H2 Srho min/max   = 0, 00 max Y = 0
 rho gas min/max = 0.9548552, 1.1704816
 Sh gas min/max = 0, 0
 porosity min/max = 0.3000326, 1
 heatUpGas min/max = 0, 7762563
 heatTransfer min/max = 0, 11463815
DILUPBiCG:  Solving for h, Initial residual = 0.0042671006, Final residual = 8.4487315e-06, No Iterations 1
 hs min/max = 1870.0186, 73549.309
 T gas min/max   = 299.99724, 370.45308
diagonal:  Solving for rho, Initial residual = 0, Final residual = 0, No Iterations 0
DILUPBiCG:  Solving for Ux, Initial residual = 0.13186594, Final residual = 9.7175244e-06, No Iterations 1
DILUPBiCG:  Solving for Uy, Initial residual = 0.1033482, Final residual = 5.6637176e-06, No Iterations 1
DICPCG:  Solving for p, Initial residual = 0.19337585, Final residual = 0.0091660838, No Iterations 26
DICPCG:  Solving for p, Initial residual = 0.0033982821, Final residual = 0.00015171855, No Iterations 17
diagonal:  Solving for rho, Initial residual = 0, Final residual = 0, No Iterations 0
time step continuity errors : sum local = 0.0020406274, global = 0.0020401106, cumulative = 0.0061217857
DICPCG:  Solving for p, Initial residual = 0.09005861, Final residual = 0.004209471, No Iterations 26
DICPCG:  Solving for p, Initial residual = 0.0023559931, Final residual = 1.9413784e-05, No Iterations 25
diagonal:  Solving for rho, Initial residual = 0, Final residual = 0, No Iterations 0
time step continuity errors : sum local = 0.0020406147, global = 0.0020400746, cumulative = 0.0081618603
ExecutionTime = 2.57 s  ClockTime = 2 s

Courant Number mean: 0.0024632695 max: 0.082070183
!@!@!@!@!!@!@ pyrolysisZone.maxTime():4.9004091e-05
deltaT = 4.8840049e-05
Time = 0.00115995

diagonal:  Solving for Ywood, Initial residual = 0, Final residual = 0, No Iterations 0
diagonal:  Solving for Yhum, Initial residual = 0, Final residual = 0, No Iterations 0
diagonal:  Solving for Yash, Initial residual = 0, Final residual = 0, No Iterations 0
diagonal:  Solving for Ychar1, Initial residual = 0, Final residual = 0, No Iterations 0
diagonal:  Solving for Ychar, Initial residual = 0, Final residual = 0, No Iterations 0
diagonal:  Solving for Ytarsolid, Initial residual = 0, Final residual = 0, No Iterations 0
diagonal:  Solving for Ylig, Initial residual = 0, Final residual = 0, No Iterations 0
diagonal:  Solving for Ycel, Initial residual = 0, Final residual = 0, No Iterations 0
diagonal:  Solving for Yhem, Initial residual = 0, Final residual = 0, No Iterations 0
  Evolve porosity porosity Source max/min 0.027951558 / 0
diagonal:  Solving for porosityF, Initial residual = 0, Final residual = 0, No Iterations 0
DICPCG:  Solving for Ts, Initial residual = 4.0045811e-07, Final residual = 4.0045811e-07, No Iterations 0
 pyrolysis min/max(T) = 599.99877, 599.99878
DICPCG:  Solving for Ts, Initial residual = 4.0045811e-07, Final residual = 4.0045811e-07, No Iterations 0
 pyrolysis min/max(T) = 599.99877, 599.99878

Pyrolysis: 
Total gas mass produced  [kg] = 8.5733606e-05
Total solid mass lost    [kg] = -8.5733606e-05
Total realese of pyrolysis gases  [kg/s] = 0.070330378
Total heat release rate [J/s] = 120021.26

PIMPLE: Iteration 1
DILUPBiCG:  Solving for targas, Initial residual = 0, Final residual = 0, No Iterations 0
DILUPBiCG:  Solving for gas, Initial residual = 0, Final residual = 0, No Iterations 0
DILUPBiCG:  Solving for CO, Initial residual = 0, Final residual = 0, No Iterations 0
DILUPBiCG:  Solving for H2O, Initial residual = 0, Final residual = 0, No Iterations 0
DILUPBiCG:  Solving for N2, Initial residual = 0.0055497697, Final residual = 2.6162806e-08, No Iterations 1
DILUPBiCG:  Solving for O2, Initial residual = 0.0037746018, Final residual = 1.3202208e-08, No Iterations 1
DILUPBiCG:  Solving for CO2, Initial residual = 0.002496642, Final residual = 1.0545004e-08, No Iterations 1
DILUPBiCG:  Solving for CH4, Initial residual = 0.0026451794, Final residual = 1.1205059e-08, No Iterations 1
DILUPBiCG:  Solving for H2, Initial residual = 0, Final residual = 0, No Iterations 0
 gas  targas Srho min/max   = 0, 00 max Y = 0
 gas  gas Srho min/max   = 0, 00 max Y = 0
 gas  CO Srho min/max   = 0, 00 max Y = 0
 gas  H2O Srho min/max   = 0, 00 max Y = 0
 gas  N2 Srho min/max   = 0, 00.75235432 max Y = 0.79457005
 gas  O2 Srho min/max   = -2.2071561, 00.19328302 max Y = 0.21004862
 gas  CO2 Srho min/max   = 0, 17.8779640 max Y = 0.050789267
 gas  CH4 Srho min/max   = 0, 1.93867330 max Y = 0.0052304332
 gas  H2 Srho min/max   = 0, 00 max Y = 0
 rho gas min/max = 0.96054417, 1.1709971
 Sh gas min/max = 0, 0
 porosity min/max = 0.30003396, 1
 heatUpGas min/max = 0, 7395622.8
 heatTransfer min/max = 0, 11712004
DILUPBiCG:  Solving for h, Initial residual = 0.0026699027, Final residual = 1.1097947e-08, No Iterations 1
 hs min/max = 1869.8957, 76630.975
 T gas min/max   = 299.99712, 373.45424
diagonal:  Solving for rho, Initial residual = 0, Final residual = 0, No Iterations 0
DILUPBiCG:  Solving for Ux, Initial residual = 0.019050778, Final residual = 3.4770263e-09, No Iterations 1
DILUPBiCG:  Solving for Uy, Initial residual = 0.011783089, Final residual = 1.7086264e-09, No Iterations 1
DICPCG:  Solving for p, Initial residual = 0.016274804, Final residual = 0.00028464604, No Iterations 2
DICPCG:  Solving for p, Initial residual = 0.00025911363, Final residual = 6.5823727e-06, No Iterations 2
diagonal:  Solving for rho, Initial residual = 0, Final residual = 0, No Iterations 0
time step continuity errors : sum local = 7.4153251e-05, global = 7.4138427e-05, cumulative = 0.0082359988
DICPCG:  Solving for p, Initial residual = 0.011068971, Final residual = 0.0001936654, No Iterations 2
DICPCG:  Solving for p, Initial residual = 0.00018149158, Final residual = 3.6760398e-07, No Iterations 3
diagonal:  Solving for rho, Initial residual = 0, Final residual = 0, No Iterations 0
time step continuity errors : sum local = 7.4150221e-05, global = 7.4135396e-05, cumulative = 0.0083101342
PIMPLE: Iteration 2
DILUPBiCG:  Solving for targas, Initial residual = 0, Final residual = 0, No Iterations 0
DILUPBiCG:  Solving for gas, Initial residual = 0, Final residual = 0, No Iterations 0
DILUPBiCG:  Solving for CO, Initial residual = 0, Final residual = 0, No Iterations 0
DILUPBiCG:  Solving for H2O, Initial residual = 0, Final residual = 0, No Iterations 0
DILUPBiCG:  Solving for N2, Initial residual = 0.001259138, Final residual = 2.5078882e-09, No Iterations 1
DILUPBiCG:  Solving for O2, Initial residual = 0.027432414, Final residual = 1.2301376e-08, No Iterations 1
DILUPBiCG:  Solving for CO2, Initial residual = 0.00025840381, Final residual = 5.3331345e-10, No Iterations 1
DILUPBiCG:  Solving for CH4, Initial residual = 0.00025945456, Final residual = 5.3598658e-10, No Iterations 1
DILUPBiCG:  Solving for H2, Initial residual = 0, Final residual = 0, No Iterations 0
 gas  targas Srho min/max   = 0, 00 max Y = 0
 gas  gas Srho min/max   = 0, 00 max Y = 0
 gas  CO Srho min/max   = 0, 00 max Y = 0
 gas  H2O Srho min/max   = 0, 00 max Y = 0
 gas  N2 Srho min/max   = 0, 00.75260944 max Y = 0.79454343
 gas  O2 Srho min/max   = -2.2071561, 00.19334668 max Y = 0.21004608
 gas  CO2 Srho min/max   = 0, 17.8779640 max Y = 0.050827873
 gas  CH4 Srho min/max   = 0, 1.93867330 max Y = 0.0052345017
 gas  H2 Srho min/max   = 0, 00 max Y = 0
 rho gas min/max = 0.95343238, 1.1709119
 Sh gas min/max = 0, 0
 porosity min/max = 0.30003396, 1
 heatUpGas min/max = 0, 7395622.8
 heatTransfer min/max = 0, 11572636
DILUPBiCG:  Solving for h, Initial residual = 0.00011117741, Final residual = 1.3627431e-10, No Iterations 1
 hs min/max = 1869.8957, 76681.997
 T gas min/max   = 299.99712, 373.50337
diagonal:  Solving for rho, Initial residual = 0, Final residual = 0, No Iterations 0
DILUPBiCG:  Solving for Ux, Initial residual = 0.0063201661, Final residual = 7.1346133e-10, No Iterations 1
DILUPBiCG:  Solving for Uy, Initial residual = 0.0035578377, Final residual = 3.0632651e-10, No Iterations 1
DICPCG:  Solving for p, Initial residual = 0.011050532, Final residual = 0.00019339375, No Iterations 2
DICPCG:  Solving for p, Initial residual = 0.00018142654, Final residual = 4.5976464e-06, No Iterations 2
diagonal:  Solving for rho, Initial residual = 0, Final residual = 0, No Iterations 0
time step continuity errors : sum local = 7.4812146e-05, global = 7.4797246e-05, cumulative = 0.0083849314
DICPCG:  Solving for p, Initial residual = 0.0075872519, Final residual = 0.00013281576, No Iterations 2
DICPCG:  Solving for p, Initial residual = 0.000127058, Final residual = 2.4624197e-07, No Iterations 3
diagonal:  Solving for rho, Initial residual = 0, Final residual = 0, No Iterations 0
time step continuity errors : sum local = 7.4810042e-05, global = 7.4795142e-05, cumulative = 0.0084597266
ExecutionTime = 2.91 s  ClockTime = 2 s

Courant Number mean: 8.5108403e-05 max: 0.0028446695
!@!@!@!@!!@!@ pyrolysisZone.maxTime():4.8840049e-05
deltaT = 4.8840049e-05
Time = 0.00120879

diagonal:  Solving for Ywood, Initial residual = 0, Final residual = 0, No Iterations 0
diagonal:  Solving for Yhum, Initial residual = 0, Final residual = 0, No Iterations 0
diagonal:  Solving for Yash, Initial residual = 0, Final residual = 0, No Iterations 0
diagonal:  Solving for Ychar1, Initial residual = 0, Final residual = 0, No Iterations 0
diagonal:  Solving for Ychar, Initial residual = 0, Final residual = 0, No Iterations 0
diagonal:  Solving for Ytarsolid, Initial residual = 0, Final residual = 0, No Iterations 0
diagonal:  Solving for Ylig, Initial residual = 0, Final residual = 0, No Iterations 0
diagonal:  Solving for Ycel, Initial residual = 0, Final residual = 0, No Iterations 0
diagonal:  Solving for Yhem, Initial residual = 0, Final residual = 0, No Iterations 0
  Evolve porosity porosity Source max/min 0.027830249 / 0
diagonal:  Solving for porosityF, Initial residual = 0, Final residual = 0, No Iterations 0
DICPCG:  Solving for Ts, Initial residual = 4.1504265e-07, Final residual = 4.1504265e-07, No Iterations 0
 pyrolysis min/max(T) = 599.99877, 599.99878
DICPCG:  Solving for Ts, Initial residual = 4.1504265e-07, Final residual = 4.1504265e-07, No Iterations 0
 pyrolysis min/max(T) = 599.99877, 599.99878

Pyrolysis: 
Total gas mass produced  [kg] = 8.9153501e-05
Total solid mass lost    [kg] = -8.9153501e-05
Total realese of pyrolysis gases  [kg/s] = 0.070022352
Total heat release rate [J/s] = 119403.71

PIMPLE: Iteration 1
DILUPBiCG:  Solving for targas, Initial residual = 0, Final residual = 0, No Iterations 0
DILUPBiCG:  Solving for gas, Initial residual = 0, Final residual = 0, No Iterations 0
DILUPBiCG:  Solving for CO, Initial residual = 0, Final residual = 0, No Iterations 0
DILUPBiCG:  Solving for H2O, Initial residual = 0, Final residual = 0, No Iterations 0
DILUPBiCG:  Solving for N2, Initial residual = 0.0041909365, Final residual = 1.1570948e-08, No Iterations 1
DILUPBiCG:  Solving for O2, Initial residual = 0.0027655722, Final residual = 5.9020033e-09, No Iterations 1
DILUPBiCG:  Solving for CO2, Initial residual = 0.0023958092, Final residual = 6.0935364e-09, No Iterations 1
DILUPBiCG:  Solving for CH4, Initial residual = 0.0025445649, Final residual = 6.4860983e-09, No Iterations 1
DILUPBiCG:  Solving for H2, Initial residual = 0, Final residual = 0, No Iterations 0
 gas  targas Srho min/max   = 0, 00 max Y = 0
 gas  gas Srho min/max   = 0, 00 max Y = 0
 gas  CO Srho min/max   = 0, 00 max Y = 0
 gas  H2O Srho min/max   = 0, 00 max Y = 0
 gas  N2 Srho min/max   = 0, 00.75128687 max Y = 0.79470572
 gas  O2 Srho min/max   = -2.1963977, 00.19191324 max Y = 0.21
 gas  CO2 Srho min/max   = 0, 17.7908210 max Y = 0.052737282
 gas  CH4 Srho min/max   = 0, 1.9386330 max Y = 0.0054444972
 gas  H2 Srho min/max   = 0, 00 max Y = 0
 rho gas min/max = 0.95336543, 1.1709832
 Sh gas min/max = 0, 0
 porosity min/max = 0.30003531, 1
 heatUpGas min/max = 0, 7363511.5
 heatTransfer min/max = 0, 11567361
DILUPBiCG:  Solving for h, Initial residual = 0.002569363, Final residual = 6.4587297e-09, No Iterations 1
 hs min/max = 1869.7728, 79851.009
 T gas min/max   = 299.997, 376.58734
diagonal:  Solving for rho, Initial residual = 0, Final residual = 0, No Iterations 0
DILUPBiCG:  Solving for Ux, Initial residual = 0.022398555, Final residual = 2.6582069e-09, No Iterations 1
DILUPBiCG:  Solving for Uy, Initial residual = 0.012014498, Final residual = 1.077998e-09, No Iterations 1
DICPCG:  Solving for p, Initial residual = 0.015221472, Final residual = 0.00014609901, No Iterations 2
DICPCG:  Solving for p, Initial residual = 0.00013384638, Final residual = 3.0177071e-06, No Iterations 2
diagonal:  Solving for rho, Initial residual = 0, Final residual = 0, No Iterations 0
time step continuity errors : sum local = 7.4131654e-05, global = 7.4116787e-05, cumulative = 0.0085338433
DICPCG:  Solving for p, Initial residual = 0.010372054, Final residual = 9.9564953e-05, No Iterations 2
DICPCG:  Solving for p, Initial residual = 9.3714465e-05, Final residual = 2.4071273e-07, No Iterations 3
diagonal:  Solving for rho, Initial residual = 0, Final residual = 0, No Iterations 0
time step continuity errors : sum local = 7.4130355e-05, global = 7.4115488e-05, cumulative = 0.0086079588
PIMPLE: Iteration 2
DILUPBiCG:  Solving for targas, Initial residual = 0, Final residual = 0, No Iterations 0
DILUPBiCG:  Solving for gas, Initial residual = 0, Final residual = 0, No Iterations 0
DILUPBiCG:  Solving for CO, Initial residual = 0, Final residual = 0, No Iterations 0
DILUPBiCG:  Solving for H2O, Initial residual = 0, Final residual = 0, No Iterations 0
DILUPBiCG:  Solving for N2, Initial residual = 0.00028170888, Final residual = 1.550556e-10, No Iterations 1
DILUPBiCG:  Solving for O2, Initial residual = 0.020617796, Final residual = 9.2972489e-09, No Iterations 1
DILUPBiCG:  Solving for CO2, Initial residual = 0.0002176958, Final residual = 4.2906295e-10, No Iterations 1
DILUPBiCG:  Solving for CH4, Initial residual = 0.0002187256, Final residual = 4.3152428e-10, No Iterations 1
DILUPBiCG:  Solving for H2, Initial residual = 0, Final residual = 0, No Iterations 0
 gas  targas Srho min/max   = 0, 00 max Y = 0
 gas  gas Srho min/max   = 0, 00 max Y = 0
 gas  CO Srho min/max   = 0, 00 max Y = 0
 gas  H2O Srho min/max   = 0, 00 max Y = 0
 gas  N2 Srho min/max   = 0, 00.75121777 max Y = 0.79472051
 gas  O2 Srho min/max   = -2.1963977, 00.19192357 max Y = 0.21
 gas  CO2 Srho min/max   = 0, 17.7908210 max Y = 0.05274886
 gas  CH4 Srho min/max   = 0, 1.9386330 max Y = 0.0054457904
 gas  H2 Srho min/max   = 0, 00 max Y = 0
 rho gas min/max = 0.94614731, 1.1709227
 Sh gas min/max = 0, 0
 porosity min/max = 0.30003531, 1
 heatUpGas min/max = 0, 7363511.5
 heatTransfer min/max = -0, 11422238
DILUPBiCG:  Solving for h, Initial residual = 5.5918792e-05, Final residual = 1.9332242e-10, No Iterations 1
 hs min/max = 1869.7728, 79813.318
 T gas min/max   = 299.997, 376.55021
diagonal:  Solving for rho, Initial residual = 0, Final residual = 0, No Iterations 0
DILUPBiCG:  Solving for Ux, Initial residual = 0.0072949844, Final residual = 7.9999457e-10, No Iterations 1
DILUPBiCG:  Solving for Uy, Initial residual = 0.0036363927, Final residual = 3.0090793e-10, No Iterations 1
DICPCG:  Solving for p, Initial residual = 0.010375559, Final residual = 9.7827162e-05, No Iterations 2
DICPCG:  Solving for p, Initial residual = 9.2222742e-05, Final residual = 2.0947742e-06, No Iterations 2
diagonal:  Solving for rho, Initial residual = 0, Final residual = 0, No Iterations 0
time step continuity errors : sum local = 7.277868e-05, global = 7.276367e-05, cumulative = 0.0086807225
DICPCG:  Solving for p, Initial residual = 0.0071336975, Final residual = 6.726252e-05, No Iterations 2
DICPCG:  Solving for p, Initial residual = 6.4563915e-05, Final residual = 1.6118784e-07, No Iterations 3
diagonal:  Solving for rho, Initial residual = 0, Final residual = 0, No Iterations 0
time step continuity errors : sum local = 7.2777794e-05, global = 7.2762785e-05, cumulative = 0.0087534853
ExecutionTime = 3.28 s  ClockTime = 3 s

Courant Number mean: 8.1433296e-05 max: 0.0027939031
!@!@!@!@!!@!@ pyrolysisZone.maxTime():1.5098125e-05
deltaT = 1.507926e-05
Time = 0.00122387

diagonal:  Solving for Ywood, Initial residual = 0, Final residual = 0, No Iterations 0
diagonal:  Solving for Yhum, Initial residual = 0, Final residual = 0, No Iterations 0
diagonal:  Solving for Yash, Initial residual = 0, Final residual = 0, No Iterations 0
diagonal:  Solving for Ychar1, Initial residual = 0, Final residual = 0, No Iterations 0
diagonal:  Solving for Ychar, Initial residual = 0, Final residual = 0, No Iterations 0
diagonal:  Solving for Ytarsolid, Initial residual = 0, Final residual = 0, No Iterations 0
diagonal:  Solving for Ylig, Initial residual = 0, Final residual = 0, No Iterations 0
diagonal:  Solving for Ycel, Initial residual = 0, Final residual = 0, No Iterations 0
diagonal:  Solving for Yhem, Initial residual = 0, Final residual = 0, No Iterations 0
  Evolve porosity porosity Source max/min 0.027726706 / 0
diagonal:  Solving for porosityF, Initial residual = 0, Final residual = 0, No Iterations 0
DICPCG:  Solving for Ts, Initial residual = 1.3286213e-07, Final residual = 1.3286213e-07, No Iterations 0
 pyrolysis min/max(T) = 599.99877, 599.99878
DICPCG:  Solving for Ts, Initial residual = 1.3286213e-07, Final residual = 1.3286213e-07, No Iterations 0
 pyrolysis min/max(T) = 599.99877, 599.99878

Pyrolysis: 
Total gas mass produced  [kg] = 9.0205036e-05
Total solid mass lost    [kg] = -9.0205036e-05
Total realese of pyrolysis gases  [kg/s] = 0.069733826
Total heat release rate [J/s] = 118824.37

PIMPLE: Iteration 1
DILUPBiCG:  Solving for targas, Initial residual = 0, Final residual = 0, No Iterations 0
DILUPBiCG:  Solving for gas, Initial residual = 0, Final residual = 0, No Iterations 0
DILUPBiCG:  Solving for CO, Initial residual = 0, Final residual = 0, No Iterations 0
DILUPBiCG:  Solving for H2O, Initial residual = 0, Final residual = 0, No Iterations 0
DILUPBiCG:  Solving for N2, Initial residual = 0.0012836428, Final residual = 3.1084084e-10, No Iterations 1
DILUPBiCG:  Solving for O2, Initial residual = 0.00076323826, Final residual = 1.4451824e-10, No Iterations 1
DILUPBiCG:  Solving for CO2, Initial residual = 0.00071186222, Final residual = 1.612618e-10, No Iterations 1
DILUPBiCG:  Solving for CH4, Initial residual = 0.00075775968, Final residual = 1.7205091e-10, No Iterations 1
DILUPBiCG:  Solving for H2, Initial residual = 0, Final residual = 0, No Iterations 0
 gas  targas Srho min/max   = 0, 00 max Y = 0
 gas  gas Srho min/max   = 0, 00 max Y = 0
 gas  CO Srho min/max   = 0, 00 max Y = 0
 gas  H2O Srho min/max   = 0, 00 max Y = 0
 gas  N2 Srho min/max   = 0, 00.75078512 max Y = 0.79477733
 gas  O2 Srho min/max   = -2.1872138, 00.19092556 max Y = 0.21
 gas  CO2 Srho min/max   = 0, 17.7164320 max Y = 0.053282031
 gas  CH4 Srho min/max   = 0, 1.93860630 max Y = 0.0055050096
 gas  H2 Srho min/max   = 0, 00 max Y = 0
 rho gas min/max = 0.94633867, 1.1709917
 Sh gas min/max = 0, 0
 porosity min/max = 0.30003573, 1
 heatUpGas min/max = 0, 7336101.2
 heatTransfer min/max = 0, 11422174
DILUPBiCG:  Solving for h, Initial residual = 0.00075528751, Final residual = 1.6900102e-10, No Iterations 1
 hs min/max = 1869.7349, 80792.037
 T gas min/max   = 299.99696, 377.49913
diagonal:  Solving for rho, Initial residual = 0, Final residual = 0, No Iterations 0
DILUPBiCG:  Solving for Ux, Initial residual = 0.0078945153, Final residual = 8.6493697e-11, No Iterations 1
DILUPBiCG:  Solving for Uy, Initial residual = 0.0037909043, Final residual = 3.1437491e-11, No Iterations 1
DICPCG:  Solving for p, Initial residual = 0.0044938559, Final residual = 3.6078493e-05, No Iterations 1
DICPCG:  Solving for p, Initial residual = 3.5081124e-05, Final residual = 1.54598e-07, No Iterations 1
diagonal:  Solving for rho, Initial residual = 0, Final residual = 0, No Iterations 0
time step continuity errors : sum local = 2.3855795e-05, global = 2.3851358e-05, cumulative = 0.0087773366
DICPCG:  Solving for p, Initial residual = 0.0031191833, Final residual = 2.5043092e-05, No Iterations 1
DICPCG:  Solving for p, Initial residual = 2.4558378e-05, Final residual = 1.0824907e-07, No Iterations 1
diagonal:  Solving for rho, Initial residual = 0, Final residual = 0, No Iterations 0
time step continuity errors : sum local = 2.3855761e-05, global = 2.3851323e-05, cumulative = 0.008801188
PIMPLE: Iteration 2
DILUPBiCG:  Solving for targas, Initial residual = 0, Final residual = 0, No Iterations 0
DILUPBiCG:  Solving for gas, Initial residual = 0, Final residual = 0, No Iterations 0
DILUPBiCG:  Solving for CO, Initial residual = 0, Final residual = 0, No Iterations 0
DILUPBiCG:  Solving for H2O, Initial residual = 0, Final residual = 0, No Iterations 0
DILUPBiCG:  Solving for N2, Initial residual = 9.099653e-05, Final residual = 9.9074582e-12, No Iterations 1
DILUPBiCG:  Solving for O2, Initial residual = 0.015379854, Final residual = 5.7082573e-10, No Iterations 1
DILUPBiCG:  Solving for CO2, Initial residual = 0.00016074981, Final residual = 3.0629095e-11, No Iterations 1
DILUPBiCG:  Solving for CH4, Initial residual = 0.00016083622, Final residual = 3.0652679e-11, No Iterations 1
DILUPBiCG:  Solving for H2, Initial residual = 0, Final residual = 0, No Iterations 0
 gas  targas Srho min/max   = 0, 00 max Y = 0
 gas  gas Srho min/max   = 0, 00 max Y = 0
 gas  CO Srho min/max   = 0, 00 max Y = 0
 gas  H2O Srho min/max   = 0, 00 max Y = 0
 gas  N2 Srho min/max   = 0, 00.75082101 max Y = 0.7947803
 gas  O2 Srho min/max   = -2.1872138, 00.19092851 max Y = 0.21
 gas  CO2 Srho min/max   = 0, 17.7164320 max Y = 0.053286092
 gas  CH4 Srho min/max   = 0, 1.93860630 max Y = 0.0055054387
 gas  H2 Srho min/max   = 0, 00 max Y = 0
 rho gas min/max = 0.94412412, 1.1709293
 Sh gas min/max = 0, 0
 porosity min/max = 0.30003573, 1
 heatUpGas min/max = 0, 7336101.2
 heatTransfer min/max = 0, 11377188
DILUPBiCG:  Solving for h, Initial residual = 1.4195478e-05, Final residual = 2.424684e-10, No Iterations 1
 hs min/max = 1869.7349, 80779.338
 T gas min/max   = 299.99696, 377.48671
diagonal:  Solving for rho, Initial residual = 0, Final residual = 0, No Iterations 0
DILUPBiCG:  Solving for Ux, Initial residual = 0.0024275304, Final residual = 2.4191138e-11, No Iterations 1
DILUPBiCG:  Solving for Uy, Initial residual = 0.0011406773, Final residual = 8.6871091e-12, No Iterations 1
DICPCG:  Solving for p, Initial residual = 0.0031195527, Final residual = 2.4751215e-05, No Iterations 1
DICPCG:  Solving for p, Initial residual = 2.4278114e-05, Final residual = 1.1092964e-07, No Iterations 1
diagonal:  Solving for rho, Initial residual = 0, Final residual = 0, No Iterations 0
time step continuity errors : sum local = 2.3584368e-05, global = 2.3579908e-05, cumulative = 0.0088247679
DICPCG:  Solving for p, Initial residual = 0.0021710422, Final residual = 1.7225576e-05, No Iterations 1
DICPCG:  Solving for p, Initial residual = 1.6995071e-05, Final residual = 7.7667256e-08, No Iterations 1
diagonal:  Solving for rho, Initial residual = 0, Final residual = 0, No Iterations 0
time step continuity errors : sum local = 2.3584343e-05, global = 2.3579883e-05, cumulative = 0.0088483478
ExecutionTime = 3.54 s  ClockTime = 3 s

Courant Number mean: 2.4384653e-05 max: 0.00083619743
!@!@!@!@!!@!@ pyrolysisZone.maxTime():1.507926e-05
deltaT = 1.507926e-05
Time = 0.00123895

diagonal:  Solving for Ywood, Initial residual = 0, Final residual = 0, No Iterations 0
diagonal:  Solving for Yhum, Initial residual = 0, Final residual = 0, No Iterations 0
diagonal:  Solving for Yash, Initial residual = 0, Final residual = 0, No Iterations 0
diagonal:  Solving for Ychar1, Initial residual = 0, Final residual = 0, No Iterations 0
diagonal:  Solving for Ychar, Initial residual = 0, Final residual = 0, No Iterations 0
diagonal:  Solving for Ytarsolid, Initial residual = 0, Final residual = 0, No Iterations 0
diagonal:  Solving for Ylig, Initial residual = 0, Final residual = 0, No Iterations 0
diagonal:  Solving for Ycel, Initial residual = 0, Final residual = 0, No Iterations 0
diagonal:  Solving for Yhem, Initial residual = 0, Final residual = 0, No Iterations 0
  Evolve porosity porosity Source max/min 0.027681098 / 0
diagonal:  Solving for porosityF, Initial residual = 0, Final residual = 0, No Iterations 0
DICPCG:  Solving for Ts, Initial residual = 1.3322696e-07, Final residual = 1.3322696e-07, No Iterations 0
 pyrolysis min/max(T) = 599.99877, 599.99878
DICPCG:  Solving for Ts, Initial residual = 1.3322696e-07, Final residual = 1.3322696e-07, No Iterations 0
 pyrolysis min/max(T) = 599.99877, 599.99878

Pyrolysis: 
Total gas mass produced  [kg] = 9.1254105e-05
Total solid mass lost    [kg] = -9.1254105e-05
Total realese of pyrolysis gases  [kg/s] = 0.069570349
Total heat release rate [J/s] = 118495.14

PIMPLE: Iteration 1
DILUPBiCG:  Solving for targas, Initial residual = 0, Final residual = 0, No Iterations 0
DILUPBiCG:  Solving for gas, Initial residual = 0, Final residual = 0, No Iterations 0
DILUPBiCG:  Solving for CO, Initial residual = 0, Final residual = 0, No Iterations 0
DILUPBiCG:  Solving for H2O, Initial residual = 0, Final residual = 0, No Iterations 0
DILUPBiCG:  Solving for N2, Initial residual = 0.0012068502, Final residual = 2.9102448e-10, No Iterations 1
DILUPBiCG:  Solving for O2, Initial residual = 0.00068022908, Final residual = 1.2144424e-10, No Iterations 1
DILUPBiCG:  Solving for CO2, Initial residual = 0.00070365688, Final residual = 1.4902519e-10, No Iterations 1
DILUPBiCG:  Solving for CH4, Initial residual = 0.00075041251, Final residual = 1.5927027e-10, No Iterations 1
DILUPBiCG:  Solving for H2, Initial residual = 0, Final residual = 0, No Iterations 0
 gas  targas Srho min/max   = 0, 00 max Y = 0
 gas  gas Srho min/max   = 0, 00 max Y = 0
 gas  CO Srho min/max   = 0, 00 max Y = 0
 gas  H2O Srho min/max   = 0, 00 max Y = 0
 gas  N2 Srho min/max   = 0, 00.75042197 max Y = 0.79484136
 gas  O2 Srho min/max   = -2.1831672, 00.19010189 max Y = 0.21
 gas  CO2 Srho min/max   = 0, 17.6836540 max Y = 0.053838282
 gas  CH4 Srho min/max   = 0, 1.93860480 max Y = 0.0055667894
 gas  H2 Srho min/max   = 0, 00 max Y = 0
 rho gas min/max = 0.9441682, 1.1709526
 Sh gas min/max = 0, 0
 porosity min/max = 0.30003614, 1
 heatUpGas min/max = 0, 7324029.7
 heatTransfer min/max = 0, 11377401
DILUPBiCG:  Solving for h, Initial residual = 0.00074592714, Final residual = 1.5597763e-10, No Iterations 1
 hs min/max = 1869.6969, 81759.604
 T gas min/max   = 299.99692, 378.43766
diagonal:  Solving for rho, Initial residual = 0, Final residual = 0, No Iterations 0
DILUPBiCG:  Solving for Ux, Initial residual = 0.00819976, Final residual = 8.3123074e-11, No Iterations 1
DILUPBiCG:  Solving for Uy, Initial residual = 0.0038138782, Final residual = 2.9574696e-11, No Iterations 1
DICPCG:  Solving for p, Initial residual = 0.0044143204, Final residual = 3.5115028e-05, No Iterations 1
DICPCG:  Solving for p, Initial residual = 3.4166996e-05, Final residual = 1.5754916e-07, No Iterations 1
diagonal:  Solving for rho, Initial residual = 0, Final residual = 0, No Iterations 0
time step continuity errors : sum local = 2.3424662e-05, global = 2.3420177e-05, cumulative = 0.0088717679
DICPCG:  Solving for p, Initial residual = 0.0030646002, Final residual = 2.4379061e-05, No Iterations 1
DICPCG:  Solving for p, Initial residual = 2.3918225e-05, Final residual = 1.1031437e-07, No Iterations 1
diagonal:  Solving for rho, Initial residual = 0, Final residual = 0, No Iterations 0
time step continuity errors : sum local = 2.3424626e-05, global = 2.3420141e-05, cumulative = 0.0088951881
PIMPLE: Iteration 2
DILUPBiCG:  Solving for targas, Initial residual = 0, Final residual = 0, No Iterations 0
DILUPBiCG:  Solving for gas, Initial residual = 0, Final residual = 0, No Iterations 0
DILUPBiCG:  Solving for CO, Initial residual = 0, Final residual = 0, No Iterations 0
DILUPBiCG:  Solving for H2O, Initial residual = 0, Final residual = 0, No Iterations 0
DILUPBiCG:  Solving for N2, Initial residual = 1.9987814e-05, Final residual = 5.943009e-12, No Iterations 1
DILUPBiCG:  Solving for O2, Initial residual = 0.011693188, Final residual = 4.3512433e-10, No Iterations 1
DILUPBiCG:  Solving for CO2, Initial residual = 0.00013226379, Final residual = 2.4514735e-11, No Iterations 1
DILUPBiCG:  Solving for CH4, Initial residual = 0.00013235368, Final residual = 2.4537617e-11, No Iterations 1
DILUPBiCG:  Solving for H2, Initial residual = 0, Final residual = 0, No Iterations 0
 gas  targas Srho min/max   = 0, 00 max Y = 0
 gas  gas Srho min/max   = 0, 00 max Y = 0
 gas  CO Srho min/max   = 0, 00 max Y = 0
 gas  H2O Srho min/max   = 0, 00 max Y = 0
 gas  N2 Srho min/max   = 0, 00.7504196 max Y = 0.79484423
 gas  O2 Srho min/max   = -2.1831672, 00.19010257 max Y = 0.21
 gas  CO2 Srho min/max   = 0, 17.6836540 max Y = 0.053839636
 gas  CH4 Srho min/max   = 0, 1.93860480 max Y = 0.0055669392
 gas  H2 Srho min/max   = 0, 00 max Y = 0
 rho gas min/max = 0.94197345, 1.1709052
 Sh gas min/max = 0, 0
 porosity min/max = 0.30003614, 1
 heatUpGas min/max = 0, 7324029.7
 heatTransfer min/max = 0, 11332193
DILUPBiCG:  Solving for h, Initial residual = 1.6240876e-05, Final residual = 5.7930955e-12, No Iterations 1
 hs min/max = 1869.6969, 81744.011
 T gas min/max   = 299.99692, 378.42245
diagonal:  Solving for rho, Initial residual = 0, Final residual = 0, No Iterations 0
DILUPBiCG:  Solving for Ux, Initial residual = 0.0025130662, Final residual = 2.4737165e-11, No Iterations 1
DILUPBiCG:  Solving for Uy, Initial residual = 0.0011471573, Final residual = 8.675499e-12, No Iterations 1
DICPCG:  Solving for p, Initial residual = 0.0030649564, Final residual = 2.401787e-05, No Iterations 1
DICPCG:  Solving for p, Initial residual = 2.3570186e-05, Final residual = 1.1340352e-07, No Iterations 1
diagonal:  Solving for rho, Initial residual = 0, Final residual = 0, No Iterations 0
time step continuity errors : sum local = 2.3023942e-05, global = 2.3019435e-05, cumulative = 0.0089182075
DICPCG:  Solving for p, Initial residual = 0.0021333607, Final residual = 1.671751e-05, No Iterations 1
DICPCG:  Solving for p, Initial residual = 1.6499349e-05, Final residual = 7.9398477e-08, No Iterations 1
diagonal:  Solving for rho, Initial residual = 0, Final residual = 0, No Iterations 0
time step continuity errors : sum local = 2.3023917e-05, global = 2.301941e-05, cumulative = 0.0089412269
ExecutionTime = 3.8 s  ClockTime = 3 s

Courant Number mean: 2.4160982e-05 max: 0.00083421472
!@!@!@!@!!@!@ pyrolysisZone.maxTime():1.507926e-05
deltaT = 1.507926e-05
Time = 0.00125403

diagonal:  Solving for Ywood, Initial residual = 0, Final residual = 0, No Iterations 0
diagonal:  Solving for Yhum, Initial residual = 0, Final residual = 0, No Iterations 0
diagonal:  Solving for Yash, Initial residual = 0, Final residual = 0, No Iterations 0
diagonal:  Solving for Ychar1, Initial residual = 0, Final residual = 0, No Iterations 0
diagonal:  Solving for Ychar, Initial residual = 0, Final residual = 0, No Iterations 0
diagonal:  Solving for Ytarsolid, Initial residual = 0, Final residual = 0, No Iterations 0
diagonal:  Solving for Ylig, Initial residual = 0, Final residual = 0, No Iterations 0
diagonal:  Solving for Ycel, Initial residual = 0, Final residual = 0, No Iterations 0
diagonal:  Solving for Yhem, Initial residual = 0, Final residual = 0, No Iterations 0
  Evolve porosity porosity Source max/min 0.027640434 / 0
diagonal:  Solving for porosityF, Initial residual = 0, Final residual = 0, No Iterations 0
DICPCG:  Solving for Ts, Initial residual = 1.3391883e-07, Final residual = 1.3391883e-07, No Iterations 0
 pyrolysis min/max(T) = 599.99877, 599.99878
DICPCG:  Solving for Ts, Initial residual = 1.3391883e-07, Final residual = 1.3391883e-07, No Iterations 0
 pyrolysis min/max(T) = 599.99877, 599.99878

Pyrolysis: 
Total gas mass produced  [kg] = 9.2301054e-05
Total solid mass lost    [kg] = -9.2301054e-05
Total realese of pyrolysis gases  [kg/s] = 0.069429724
Total heat release rate [J/s] = 118211.93

PIMPLE: Iteration 1
DILUPBiCG:  Solving for targas, Initial residual = 0, Final residual = 0, No Iterations 0
DILUPBiCG:  Solving for gas, Initial residual = 0, Final residual = 0, No Iterations 0
DILUPBiCG:  Solving for CO, Initial residual = 0, Final residual = 0, No Iterations 0
DILUPBiCG:  Solving for H2O, Initial residual = 0, Final residual = 0, No Iterations 0
DILUPBiCG:  Solving for N2, Initial residual = 0.0012035578, Final residual = 2.8829733e-10, No Iterations 1
DILUPBiCG:  Solving for O2, Initial residual = 0.00064027566, Final residual = 1.1282118e-10, No Iterations 1
DILUPBiCG:  Solving for CO2, Initial residual = 0.00069552618, Final residual = 1.4522784e-10, No Iterations 1
DILUPBiCG:  Solving for CH4, Initial residual = 0.00074283294, Final residual = 1.5544012e-10, No Iterations 1
DILUPBiCG:  Solving for H2, Initial residual = 0, Final residual = 0, No Iterations 0
 gas  targas Srho min/max   = 0, 00 max Y = 0
 gas  gas Srho min/max   = 0, 00 max Y = 0
 gas  CO Srho min/max   = 0, 00 max Y = 0
 gas  H2O Srho min/max   = 0, 00 max Y = 0
 gas  N2 Srho min/max   = 0, 00.75001545 max Y = 0.79490961
 gas  O2 Srho min/max   = -2.1795592, 00.18940189 max Y = 0.21
 gas  CO2 Srho min/max   = 0, 17.6544290 max Y = 0.054403941
 gas  CH4 Srho min/max   = 0, 1.93860330 max Y = 0.0056296505
 gas  H2 Srho min/max   = 0, 00 max Y = 0
 rho gas min/max = 0.94202119, 1.1709305
 Sh gas min/max = 0, 0
 porosity min/max = 0.30003656, 1
 heatUpGas min/max = 0, 7313266.2
 heatTransfer min/max = 0, 11332525
DILUPBiCG:  Solving for h, Initial residual = 0.00073436412, Final residual = 1.5129078e-10, No Iterations 1
 hs min/max = 1869.659, 82723.24
 T gas min/max   = 299.99688, 379.37273
diagonal:  Solving for rho, Initial residual = 0, Final residual = 0, No Iterations 0
DILUPBiCG:  Solving for Ux, Initial residual = 0.0084629384, Final residual = 8.4754605e-11, No Iterations 1
DILUPBiCG:  Solving for Uy, Initial residual = 0.0038319269, Final residual = 2.9524074e-11, No Iterations 1
DICPCG:  Solving for p, Initial residual = 0.0043392279, Final residual = 3.3607237e-05, No Iterations 1
DICPCG:  Solving for p, Initial residual = 3.2740555e-05, Final residual = 1.7296773e-07, No Iterations 1
diagonal:  Solving for rho, Initial residual = 0, Final residual = 0, No Iterations 0
time step continuity errors : sum local = 2.2949811e-05, global = 2.2945283e-05, cumulative = 0.0089641722
DICPCG:  Solving for p, Initial residual = 0.0030136147, Final residual = 2.3340727e-05, No Iterations 1
DICPCG:  Solving for p, Initial residual = 2.2919279e-05, Final residual = 1.2110937e-07, No Iterations 1
diagonal:  Solving for rho, Initial residual = 0, Final residual = 0, No Iterations 0
time step continuity errors : sum local = 2.2949773e-05, global = 2.2945245e-05, cumulative = 0.0089871175
PIMPLE: Iteration 2
DILUPBiCG:  Solving for targas, Initial residual = 0, Final residual = 0, No Iterations 0
DILUPBiCG:  Solving for gas, Initial residual = 0, Final residual = 0, No Iterations 0
DILUPBiCG:  Solving for CO, Initial residual = 0, Final residual = 0, No Iterations 0
DILUPBiCG:  Solving for H2O, Initial residual = 0, Final residual = 0, No Iterations 0
DILUPBiCG:  Solving for N2, Initial residual = 2.81251e-05, Final residual = 3.2984051e-12, No Iterations 1
DILUPBiCG:  Solving for O2, Initial residual = 0.009059147, Final residual = 3.5066112e-10, No Iterations 1
DILUPBiCG:  Solving for CO2, Initial residual = 0.00010947167, Final residual = 2.0275461e-11, No Iterations 1
DILUPBiCG:  Solving for CH4, Initial residual = 0.00010956369, Final residual = 2.0298435e-11, No Iterations 1
DILUPBiCG:  Solving for H2, Initial residual = 0, Final residual = 0, No Iterations 0
 gas  targas Srho min/max   = 0, 00 max Y = 0
 gas  gas Srho min/max   = 0, 00 max Y = 0
 gas  CO Srho min/max   = 0, 00 max Y = 0
 gas  H2O Srho min/max   = 0, 00 max Y = 0
 gas  N2 Srho min/max   = 0, 00.75000092 max Y = 0.79491298
 gas  O2 Srho min/max   = -2.1795592, 00.18940145 max Y = 0.21
 gas  CO2 Srho min/max   = 0, 17.6544290 max Y = 0.054404402
 gas  CH4 Srho min/max   = 0, 1.93860330 max Y = 0.0056297082
 gas  H2 Srho min/max   = 0, 00 max Y = 0
 rho gas min/max = 0.93984624, 1.1708951
 Sh gas min/max = 0, 0
 porosity min/max = 0.30003656, 1
 heatUpGas min/max = 0, 7313266.2
 heatTransfer min/max = -0, 11287190
DILUPBiCG:  Solving for h, Initial residual = 1.6416747e-05, Final residual = 5.5249527e-12, No Iterations 1
 hs min/max = 1869.659, 82706.328
 T gas min/max   = 299.99688, 379.35624
diagonal:  Solving for rho, Initial residual = 0, Final residual = 0, No Iterations 0
DILUPBiCG:  Solving for Ux, Initial residual = 0.0025818463, Final residual = 2.5872901e-11, No Iterations 1
DILUPBiCG:  Solving for Uy, Initial residual = 0.001150956, Final residual = 8.9057261e-12, No Iterations 1
DICPCG:  Solving for p, Initial residual = 0.0030139626, Final residual = 2.2881979e-05, No Iterations 1
DICPCG:  Solving for p, Initial residual = 2.2475271e-05, Final residual = 1.2490594e-07, No Iterations 1
diagonal:  Solving for rho, Initial residual = 0, Final residual = 0, No Iterations 0
time step continuity errors : sum local = 2.2522128e-05, global = 2.2517579e-05, cumulative = 0.009009635
DICPCG:  Solving for p, Initial residual = 0.0020984323, Final residual = 1.5930911e-05, No Iterations 1
DICPCG:  Solving for p, Initial residual = 1.5732658e-05, Final residual = 8.7450751e-08, No Iterations 1
diagonal:  Solving for rho, Initial residual = 0, Final residual = 0, No Iterations 0
time step continuity errors : sum local = 2.2522101e-05, global = 2.2517552e-05, cumulative = 0.0090321526
ExecutionTime = 4.06 s  ClockTime = 4 s

Courant Number mean: 2.4201697e-05 max: 0.00084399625
!@!@!@!@!!@!@ pyrolysisZone.maxTime():1.507926e-05
deltaT = 1.507926e-05
Time = 0.00126911

diagonal:  Solving for Ywood, Initial residual = 0, Final residual = 0, No Iterations 0
diagonal:  Solving for Yhum, Initial residual = 0, Final residual = 0, No Iterations 0
diagonal:  Solving for Yash, Initial residual = 0, Final residual = 0, No Iterations 0
diagonal:  Solving for Ychar1, Initial residual = 0, Final residual = 0, No Iterations 0
diagonal:  Solving for Ychar, Initial residual = 0, Final residual = 0, No Iterations 0
diagonal:  Solving for Ytarsolid, Initial residual = 0, Final residual = 0, No Iterations 0
diagonal:  Solving for Ylig, Initial residual = 0, Final residual = 0, No Iterations 0
diagonal:  Solving for Ycel, Initial residual = 0, Final residual = 0, No Iterations 0
diagonal:  Solving for Yhem, Initial residual = 0, Final residual = 0, No Iterations 0
  Evolve porosity porosity Source max/min 0.027603498 / 0
diagonal:  Solving for porosityF, Initial residual = 0, Final residual = 0, No Iterations 0
DICPCG:  Solving for Ts, Initial residual = 1.348506e-07, Final residual = 1.348506e-07, No Iterations 0
 pyrolysis min/max(T) = 599.99877, 599.99878
DICPCG:  Solving for Ts, Initial residual = 1.348506e-07, Final residual = 1.348506e-07, No Iterations 0
 pyrolysis min/max(T) = 599.99877, 599.99878

Pyrolysis: 
Total gas mass produced  [kg] = 9.3346142e-05
Total solid mass lost    [kg] = -9.3346142e-05
Total realese of pyrolysis gases  [kg/s] = 0.069306326
Total heat release rate [J/s] = 117963.42

PIMPLE: Iteration 1
DILUPBiCG:  Solving for targas, Initial residual = 0, Final residual = 0, No Iterations 0
DILUPBiCG:  Solving for gas, Initial residual = 0, Final residual = 0, No Iterations 0
DILUPBiCG:  Solving for CO, Initial residual = 0, Final residual = 0, No Iterations 0
DILUPBiCG:  Solving for H2O, Initial residual = 0, Final residual = 0, No Iterations 0
DILUPBiCG:  Solving for N2, Initial residual = 0.0012230058, Final residual = 2.941809e-10, No Iterations 1
DILUPBiCG:  Solving for O2, Initial residual = 0.00061775857, Final residual = 1.0989218e-10, No Iterations 1
DILUPBiCG:  Solving for CO2, Initial residual = 0.00068749229, Final residual = 1.452694e-10, No Iterations 1
DILUPBiCG:  Solving for CH4, Initial residual = 0.0007351227, Final residual = 1.5567889e-10, No Iterations 1
DILUPBiCG:  Solving for H2, Initial residual = 0, Final residual = 0, No Iterations 0
 gas  targas Srho min/max   = 0, 00 max Y = 0
 gas  gas Srho min/max   = 0, 00 max Y = 0
 gas  CO Srho min/max   = 0, 00 max Y = 0
 gas  H2O Srho min/max   = 0, 00 max Y = 0
 gas  N2 Srho min/max   = 0, 00.74957915 max Y = 0.79498332
 gas  O2 Srho min/max   = -2.176282, 00.18879494 max Y = 0.21
 gas  CO2 Srho min/max   = 0, 17.6278840 max Y = 0.054978157
 gas  CH4 Srho min/max   = 0, 1.93860170 max Y = 0.0056934973
 gas  H2 Srho min/max   = 0, 00 max Y = 0
 rho gas min/max = 0.93989538, 1.1709224
 Sh gas min/max = 0, 0
 porosity min/max = 0.30003697, 1
 heatUpGas min/max = 0, 7303489.1
 heatTransfer min/max = 0, 11287674
DILUPBiCG:  Solving for h, Initial residual = 0.00072227589, Final residual = 1.504675e-10, No Iterations 1
 hs min/max = 1869.6211, 83683.012
 T gas min/max   = 299.99685, 380.30424
diagonal:  Solving for rho, Initial residual = 0, Final residual = 0, No Iterations 0
DILUPBiCG:  Solving for Ux, Initial residual = 0.0086642448, Final residual = 8.8387581e-11, No Iterations 1
DILUPBiCG:  Solving for Uy, Initial residual = 0.0038401431, Final residual = 3.0321669e-11, No Iterations 1
DICPCG:  Solving for p, Initial residual = 0.0042693226, Final residual = 3.1677664e-05, No Iterations 1
DICPCG:  Solving for p, Initial residual = 3.0907141e-05, Final residual = 1.9562623e-07, No Iterations 1
diagonal:  Solving for rho, Initial residual = 0, Final residual = 0, No Iterations 0
time step continuity errors : sum local = 2.249708e-05, global = 2.2492515e-05, cumulative = 0.0090546451
DICPCG:  Solving for p, Initial residual = 0.0029664273, Final residual = 2.2010152e-05, No Iterations 1
DICPCG:  Solving for p, Initial residual = 2.163529e-05, Final residual = 1.3697017e-07, No Iterations 1
diagonal:  Solving for rho, Initial residual = 0, Final residual = 0, No Iterations 0
time step continuity errors : sum local = 2.2497041e-05, global = 2.2492475e-05, cumulative = 0.0090771376
PIMPLE: Iteration 2
DILUPBiCG:  Solving for targas, Initial residual = 0, Final residual = 0, No Iterations 0
DILUPBiCG:  Solving for gas, Initial residual = 0, Final residual = 0, No Iterations 0
DILUPBiCG:  Solving for CO, Initial residual = 0, Final residual = 0, No Iterations 0
DILUPBiCG:  Solving for H2O, Initial residual = 0, Final residual = 0, No Iterations 0
DILUPBiCG:  Solving for N2, Initial residual = 3.4287515e-05, Final residual = 4.7909859e-12, No Iterations 1
DILUPBiCG:  Solving for O2, Initial residual = 0.0071406258, Final residual = 2.924937e-10, No Iterations 1
DILUPBiCG:  Solving for CO2, Initial residual = 9.120603e-05, Final residual = 1.7101671e-11, No Iterations 1
DILUPBiCG:  Solving for CH4, Initial residual = 9.129928e-05, Final residual = 1.7124965e-11, No Iterations 1
DILUPBiCG:  Solving for H2, Initial residual = 0, Final residual = 0, No Iterations 0
 gas  targas Srho min/max   = 0, 00 max Y = 0
 gas  gas Srho min/max   = 0, 00 max Y = 0
 gas  CO Srho min/max   = 0, 00 max Y = 0
 gas  H2O Srho min/max   = 0, 00 max Y = 0
 gas  N2 Srho min/max   = 0, 00.74956172 max Y = 0.79498722
 gas  O2 Srho min/max   = -2.176282, 00.18879384 max Y = 0.21
 gas  CO2 Srho min/max   = 0, 17.6278840 max Y = 0.05497838
 gas  CH4 Srho min/max   = 0, 1.93860170 max Y = 0.0056935304
 gas  H2 Srho min/max   = 0, 00 max Y = 0
 rho gas min/max = 0.93774127, 1.1708966
 Sh gas min/max = 0, 0
 porosity min/max = 0.30003697, 1
 heatUpGas min/max = 0, 7303489.1
 heatTransfer min/max = -0, 11242393
DILUPBiCG:  Solving for h, Initial residual = 1.5971916e-05, Final residual = 6.0626983e-12, No Iterations 1
 hs min/max = 1869.6211, 83665.681
 T gas min/max   = 299.99685, 380.28735
diagonal:  Solving for rho, Initial residual = 0, Final residual = 0, No Iterations 0
DILUPBiCG:  Solving for Ux, Initial residual = 0.0026298343, Final residual = 2.7273085e-11, No Iterations 1
DILUPBiCG:  Solving for Uy, Initial residual = 0.0011514628, Final residual = 9.2782493e-12, No Iterations 1
DICPCG:  Solving for p, Initial residual = 0.0029667687, Final residual = 2.1418959e-05, No Iterations 1
DICPCG:  Solving for p, Initial residual = 2.1060504e-05, Final residual = 1.4044806e-07, No Iterations 1
diagonal:  Solving for rho, Initial residual = 0, Final residual = 0, No Iterations 0
time step continuity errors : sum local = 2.2074504e-05, global = 2.2069917e-05, cumulative = 0.0090992075
DICPCG:  Solving for p, Initial residual = 0.0020662369, Final residual = 1.4916738e-05, No Iterations 1
DICPCG:  Solving for p, Initial residual = 1.4741966e-05, Final residual = 9.8329298e-08, No Iterations 1
diagonal:  Solving for rho, Initial residual = 0, Final residual = 0, No Iterations 0
time step continuity errors : sum local = 2.2074476e-05, global = 2.2069889e-05, cumulative = 0.0091212774
ExecutionTime = 4.31 s  ClockTime = 4 s

Courant Number mean: 2.4390374e-05 max: 0.00086019668
!@!@!@!@!!@!@ pyrolysisZone.maxTime():1.507926e-05
deltaT = 1.507926e-05
Time = 0.00128419

diagonal:  Solving for Ywood, Initial residual = 0, Final residual = 0, No Iterations 0
diagonal:  Solving for Yhum, Initial residual = 0, Final residual = 0, No Iterations 0
diagonal:  Solving for Yash, Initial residual = 0, Final residual = 0, No Iterations 0
diagonal:  Solving for Ychar1, Initial residual = 0, Final residual = 0, No Iterations 0
diagonal:  Solving for Ychar, Initial residual = 0, Final residual = 0, No Iterations 0
diagonal:  Solving for Ytarsolid, Initial residual = 0, Final residual = 0, No Iterations 0
diagonal:  Solving for Ylig, Initial residual = 0, Final residual = 0, No Iterations 0
diagonal:  Solving for Ycel, Initial residual = 0, Final residual = 0, No Iterations 0
diagonal:  Solving for Yhem, Initial residual = 0, Final residual = 0, No Iterations 0
  Evolve porosity porosity Source max/min 0.027569616 / 0
diagonal:  Solving for porosityF, Initial residual = 0, Final residual = 0, No Iterations 0
DICPCG:  Solving for Ts, Initial residual = 1.3596308e-07, Final residual = 1.3596308e-07, No Iterations 0
 pyrolysis min/max(T) = 599.99877, 599.99878
DICPCG:  Solving for Ts, Initial residual = 1.3596308e-07, Final residual = 1.3596308e-07, No Iterations 0
 pyrolysis min/max(T) = 599.99877, 599.99878

Pyrolysis: 
Total gas mass produced  [kg] = 9.4389571e-05
Total solid mass lost    [kg] = -9.4389571e-05
Total realese of pyrolysis gases  [kg/s] = 0.069196275
Total heat release rate [J/s] = 117741.79

PIMPLE: Iteration 1
DILUPBiCG:  Solving for targas, Initial residual = 0, Final residual = 0, No Iterations 0
DILUPBiCG:  Solving for gas, Initial residual = 0, Final residual = 0, No Iterations 0
DILUPBiCG:  Solving for CO, Initial residual = 0, Final residual = 0, No Iterations 0
DILUPBiCG:  Solving for H2O, Initial residual = 0, Final residual = 0, No Iterations 0
DILUPBiCG:  Solving for N2, Initial residual = 0.0012528722, Final residual = 3.0715511e-10, No Iterations 1
DILUPBiCG:  Solving for O2, Initial residual = 0.00060599494, Final residual = 1.1022307e-10, No Iterations 1
DILUPBiCG:  Solving for CO2, Initial residual = 0.000679569, Final residual = 1.4742189e-10, No Iterations 1
DILUPBiCG:  Solving for CH4, Initial residual = 0.00072735115, Final residual = 1.5815548e-10, No Iterations 1
DILUPBiCG:  Solving for H2, Initial residual = 0, Final residual = 0, No Iterations 0
 gas  targas Srho min/max   = 0, 00 max Y = 0
 gas  gas Srho min/max   = 0, 00 max Y = 0
 gas  CO Srho min/max   = 0, 00 max Y = 0
 gas  H2O Srho min/max   = 0, 00 max Y = 0
 gas  N2 Srho min/max   = 0, 00.74911928 max Y = 0.79506313
 gas  O2 Srho min/max   = -2.1732758, 00.18825838 max Y = 0.21
 gas  CO2 Srho min/max   = 0, 17.6035340 max Y = 0.055560277
 gas  CH4 Srho min/max   = 0, 1.93860020 max Y = 0.005758256
 gas  H2 Srho min/max   = 0, 00 max Y = 0
 rho gas min/max = 0.93778923, 1.170926
 Sh gas min/max = 0, 0
 porosity min/max = 0.30003738, 1
 heatUpGas min/max = 0, 7294520.1
 heatTransfer min/max = 0, 11242878
DILUPBiCG:  Solving for h, Initial residual = 0.00071012024, Final residual = 1.5171752e-10, No Iterations 1
 hs min/max = 1869.5831, 84638.906
 T gas min/max   = 299.99681, 381.23208
diagonal:  Solving for rho, Initial residual = 0, Final residual = 0, No Iterations 0
DILUPBiCG:  Solving for Ux, Initial residual = 0.0087932406, Final residual = 9.2873372e-11, No Iterations 1
DILUPBiCG:  Solving for Uy, Initial residual = 0.003836979, Final residual = 3.1595561e-11, No Iterations 1
DICPCG:  Solving for p, Initial residual = 0.0042047118, Final residual = 2.9173752e-05, No Iterations 1
DICPCG:  Solving for p, Initial residual = 2.8509857e-05, Final residual = 2.1412098e-07, No Iterations 1
diagonal:  Solving for rho, Initial residual = 0, Final residual = 0, No Iterations 0
time step continuity errors : sum local = 2.2075313e-05, global = 2.2070715e-05, cumulative = 0.0091433481
DICPCG:  Solving for p, Initial residual = 0.002922956, Final residual = 2.0279581e-05, No Iterations 1
DICPCG:  Solving for p, Initial residual = 1.9956464e-05, Final residual = 1.4991128e-07, No Iterations 1
diagonal:  Solving for rho, Initial residual = 0, Final residual = 0, No Iterations 0
time step continuity errors : sum local = 2.2075273e-05, global = 2.2070674e-05, cumulative = 0.0091654188
PIMPLE: Iteration 2
DILUPBiCG:  Solving for targas, Initial residual = 0, Final residual = 0, No Iterations 0
DILUPBiCG:  Solving for gas, Initial residual = 0, Final residual = 0, No Iterations 0
DILUPBiCG:  Solving for CO, Initial residual = 0, Final residual = 0, No Iterations 0
DILUPBiCG:  Solving for H2O, Initial residual = 0, Final residual = 0, No Iterations 0
DILUPBiCG:  Solving for N2, Initial residual = 3.8260915e-05, Final residual = 5.9852323e-12, No Iterations 1
DILUPBiCG:  Solving for O2, Initial residual = 0.0057211042, Final residual = 2.4922747e-10, No Iterations 1
DILUPBiCG:  Solving for CO2, Initial residual = 7.6274788e-05, Final residual = 1.4552994e-11, No Iterations 1
DILUPBiCG:  Solving for CH4, Initial residual = 7.6368541e-05, Final residual = 1.4576718e-11, No Iterations 1
DILUPBiCG:  Solving for H2, Initial residual = 0, Final residual = 0, No Iterations 0
 gas  targas Srho min/max   = 0, 00 max Y = 0
 gas  gas Srho min/max   = 0, 00 max Y = 0
 gas  CO Srho min/max   = 0, 00 max Y = 0
 gas  H2O Srho min/max   = 0, 00 max Y = 0
 gas  N2 Srho min/max   = 0, 00.74910288 max Y = 0.79506736
 gas  O2 Srho min/max   = -2.1732758, 00.18825681 max Y = 0.21
 gas  CO2 Srho min/max   = 0, 17.6035340 max Y = 0.055560546
 gas  CH4 Srho min/max   = 0, 1.93860020 max Y = 0.0057582939
 gas  H2 Srho min/max   = 0, 00 max Y = 0
 rho gas min/max = 0.93565669, 1.170908
 Sh gas min/max = 0, 0
 porosity min/max = 0.30003738, 1
 heatUpGas min/max = 0, 7294520.1
 heatTransfer min/max = -0, 11197697
DILUPBiCG:  Solving for h, Initial residual = 1.5231822e-05, Final residual = 7.1880398e-12, No Iterations 1
 hs min/max = 1869.5831, 84621.604
 T gas min/max   = 299.99681, 381.21523
diagonal:  Solving for rho, Initial residual = 0, Final residual = 0, No Iterations 0
DILUPBiCG:  Solving for Ux, Initial residual = 0.0026552477, Final residual = 2.8736763e-11, No Iterations 1
DILUPBiCG:  Solving for Uy, Initial residual = 0.001148463, Final residual = 9.7377498e-12, No Iterations 1
DICPCG:  Solving for p, Initial residual = 0.0029232928, Final residual = 1.9503268e-05, No Iterations 1
DICPCG:  Solving for p, Initial residual = 1.9198449e-05, Final residual = 1.5105128e-07, No Iterations 1
diagonal:  Solving for rho, Initial residual = 0, Final residual = 0, No Iterations 0
time step continuity errors : sum local = 2.1673327e-05, global = 2.1668706e-05, cumulative = 0.0091870875
DICPCG:  Solving for p, Initial residual = 0.0020366498, Final residual = 1.3586773e-05, No Iterations 1
DICPCG:  Solving for p, Initial residual = 1.3438108e-05, Final residual = 1.0574692e-07, No Iterations 1
diagonal:  Solving for rho, Initial residual = 0, Final residual = 0, No Iterations 0
time step continuity errors : sum local = 2.1673299e-05, global = 2.1668678e-05, cumulative = 0.0092087562
ExecutionTime = 4.58 s  ClockTime = 4 s

Courant Number mean: 2.4669381e-05 max: 0.00088006249
!@!@!@!@!!@!@ pyrolysisZone.maxTime():1.507926e-05
deltaT = 1.507926e-05
Time = 0.00129927

diagonal:  Solving for Ywood, Initial residual = 0, Final residual = 0, No Iterations 0
diagonal:  Solving for Yhum, Initial residual = 0, Final residual = 0, No Iterations 0
diagonal:  Solving for Yash, Initial residual = 0, Final residual = 0, No Iterations 0
diagonal:  Solving for Ychar1, Initial residual = 0, Final residual = 0, No Iterations 0
diagonal:  Solving for Ychar, Initial residual = 0, Final residual = 0, No Iterations 0
diagonal:  Solving for Ytarsolid, Initial residual = 0, Final residual = 0, No Iterations 0
diagonal:  Solving for Ylig, Initial residual = 0, Final residual = 0, No Iterations 0
diagonal:  Solving for Ycel, Initial residual = 0, Final residual = 0, No Iterations 0
diagonal:  Solving for Yhem, Initial residual = 0, Final residual = 0, No Iterations 0
  Evolve porosity porosity Source max/min 0.027538354 / 0
diagonal:  Solving for porosityF, Initial residual = 0, Final residual = 0, No Iterations 0
DICPCG:  Solving for Ts, Initial residual = 1.3721489e-07, Final residual = 1.3721489e-07, No Iterations 0
 pyrolysis min/max(T) = 599.99877, 599.99878
DICPCG:  Solving for Ts, Initial residual = 1.3721489e-07, Final residual = 1.3721489e-07, No Iterations 0
 pyrolysis min/max(T) = 599.99877, 599.99878

Pyrolysis: 
Total gas mass produced  [kg] = 9.54315e-05
Total solid mass lost    [kg] = -9.54315e-05
Total realese of pyrolysis gases  [kg/s] = 0.069096826
Total heat release rate [J/s] = 117541.52

PIMPLE: Iteration 1
DILUPBiCG:  Solving for targas, Initial residual = 0, Final residual = 0, No Iterations 0
DILUPBiCG:  Solving for gas, Initial residual = 0, Final residual = 0, No Iterations 0
DILUPBiCG:  Solving for CO, Initial residual = 0, Final residual = 0, No Iterations 0
DILUPBiCG:  Solving for H2O, Initial residual = 0, Final residual = 0, No Iterations 0
DILUPBiCG:  Solving for N2, Initial residual = 0.0012869867, Final residual = 3.2577365e-10, No Iterations 1
DILUPBiCG:  Solving for O2, Initial residual = 0.00060056678, Final residual = 1.1263986e-10, No Iterations 1
DILUPBiCG:  Solving for CO2, Initial residual = 0.00067176495, Final residual = 1.5093564e-10, No Iterations 1
DILUPBiCG:  Solving for CH4, Initial residual = 0.00071956651, Final residual = 1.6207667e-10, No Iterations 1
DILUPBiCG:  Solving for H2, Initial residual = 0, Final residual = 0, No Iterations 0
 gas  targas Srho min/max   = 0, 00 max Y = 0
 gas  gas Srho min/max   = 0, 00 max Y = 0
 gas  CO Srho min/max   = 0, 00 max Y = 0
 gas  H2O Srho min/max   = 0, 00 max Y = 0
 gas  N2 Srho min/max   = 0, 00.74864081 max Y = 0.79514918
 gas  O2 Srho min/max   = -2.1705021, 00.18777563 max Y = 0.21
 gas  CO2 Srho min/max   = 0, 17.5810670 max Y = 0.056149801
 gas  CH4 Srho min/max   = 0, 1.93859870 max Y = 0.0058238696
 gas  H2 Srho min/max   = 0, 00 max Y = 0
 rho gas min/max = 0.93570164, 1.1709397
 Sh gas min/max = 0, 0
 porosity min/max = 0.30003779, 1
 heatUpGas min/max = 0, 7286244.4
 heatTransfer min/max = -0, 11198141
DILUPBiCG:  Solving for h, Initial residual = 0.00069811334, Final residual = 1.5428337e-10, No Iterations 1
 hs min/max = 1869.5452, 85590.669
 T gas min/max   = 299.99677, 382.15593
diagonal:  Solving for rho, Initial residual = 0, Final residual = 0, No Iterations 0
DILUPBiCG:  Solving for Ux, Initial residual = 0.0088463165, Final residual = 9.7508055e-11, No Iterations 1
DILUPBiCG:  Solving for Uy, Initial residual = 0.0038224597, Final residual = 3.315294e-11, No Iterations 1
DICPCG:  Solving for p, Initial residual = 0.0041452267, Final residual = 2.5752682e-05, No Iterations 1
DICPCG:  Solving for p, Initial residual = 2.5207306e-05, Final residual = 2.1779347e-07, No Iterations 1
diagonal:  Solving for rho, Initial residual = 0, Final residual = 0, No Iterations 0
time step continuity errors : sum local = 2.168456e-05, global = 2.1679933e-05, cumulative = 0.0092304361
DICPCG:  Solving for p, Initial residual = 0.0028830067, Final residual = 1.7909418e-05, No Iterations 1
DICPCG:  Solving for p, Initial residual = 1.7643875e-05, Final residual = 1.5247016e-07, No Iterations 1
diagonal:  Solving for rho, Initial residual = 0, Final residual = 0, No Iterations 0
time step continuity errors : sum local = 2.1684522e-05, global = 2.1679895e-05, cumulative = 0.009252116
PIMPLE: Iteration 2
DILUPBiCG:  Solving for targas, Initial residual = 0, Final residual = 0, No Iterations 0
DILUPBiCG:  Solving for gas, Initial residual = 0, Final residual = 0, No Iterations 0
DILUPBiCG:  Solving for CO, Initial residual = 0, Final residual = 0, No Iterations 0
DILUPBiCG:  Solving for H2O, Initial residual = 0, Final residual = 0, No Iterations 0
DILUPBiCG:  Solving for N2, Initial residual = 3.9344967e-05, Final residual = 6.8065521e-12, No Iterations 1
DILUPBiCG:  Solving for O2, Initial residual = 0.0046576798, Final residual = 2.1467664e-10, No Iterations 1
DILUPBiCG:  Solving for CO2, Initial residual = 6.3820356e-05, Final residual = 1.2384091e-11, No Iterations 1
DILUPBiCG:  Solving for CH4, Initial residual = 6.3913994e-05, Final residual = 1.2408253e-11, No Iterations 1
DILUPBiCG:  Solving for H2, Initial residual = 0, Final residual = 0, No Iterations 0
 gas  targas Srho min/max   = 0, 00 max Y = 0
 gas  gas Srho min/max   = 0, 00 max Y = 0
 gas  CO Srho min/max   = 0, 00 max Y = 0
 gas  H2O Srho min/max   = 0, 00 max Y = 0
 gas  N2 Srho min/max   = 0, 00.74862708 max Y = 0.79515347
 gas  O2 Srho min/max   = -2.1705021, 00.18777372 max Y = 0.21
 gas  CO2 Srho min/max   = 0, 17.5810670 max Y = 0.056150242
 gas  CH4 Srho min/max   = 0, 1.93859870 max Y = 0.0058239252
 gas  H2 Srho min/max   = 0, 00 max Y = 0
 rho gas min/max = 0.93359098, 1.1709278
 Sh gas min/max = 0, 0
 porosity min/max = 0.30003779, 1
 heatUpGas min/max = 0, 7286244.4
 heatTransfer min/max = -0, 11153066
DILUPBiCG:  Solving for h, Initial residual = 1.4317167e-05, Final residual = 9.2776225e-12, No Iterations 1
 hs min/max = 1869.5452, 85573.725
 T gas min/max   = 299.99677, 382.13943
diagonal:  Solving for rho, Initial residual = 0, Final residual = 0, No Iterations 0
DILUPBiCG:  Solving for Ux, Initial residual = 0.0026579902, Final residual = 3.0127334e-11, No Iterations 1
DILUPBiCG:  Solving for Uy, Initial residual = 0.0011423088, Final residual = 1.0248357e-11, No Iterations 1
DICPCG:  Solving for p, Initial residual = 0.0028835231, Final residual = 1.6879615e-05, No Iterations 1
DICPCG:  Solving for p, Initial residual = 1.6634503e-05, Final residual = 1.4945387e-07, No Iterations 1
diagonal:  Solving for rho, Initial residual = 0, Final residual = 0, No Iterations 0
time step continuity errors : sum local = 2.1311576e-05, global = 2.1306925e-05, cumulative = 0.0092734229
DICPCG:  Solving for p, Initial residual = 0.0020096196, Final residual = 1.1762489e-05, No Iterations 1
DICPCG:  Solving for p, Initial residual = 1.1642913e-05, Final residual = 1.0462043e-07, No Iterations 1
diagonal:  Solving for rho, Initial residual = 0, Final residual = 0, No Iterations 0
time step continuity errors : sum local = 2.131155e-05, global = 2.1306899e-05, cumulative = 0.0092947298
ExecutionTime = 4.83 s  ClockTime = 4 s

Courant Number mean: 2.5009051e-05 max: 0.00090196138
!@!@!@!@!!@!@ pyrolysisZone.maxTime():1.507926e-05
deltaT = 1.507926e-05
Time = 0.00131435

DICPCG:  Solving for G, Initial residual = 0.91619218, Final residual = 0.02822622, No Iterations 2
diagonal:  Solving for Ywood, Initial residual = 0, Final residual = 0, No Iterations 0
diagonal:  Solving for Yhum, Initial residual = 0, Final residual = 0, No Iterations 0
diagonal:  Solving for Yash, Initial residual = 0, Final residual = 0, No Iterations 0
diagonal:  Solving for Ychar1, Initial residual = 0, Final residual = 0, No Iterations 0
diagonal:  Solving for Ychar, Initial residual = 0, Final residual = 0, No Iterations 0
diagonal:  Solving for Ytarsolid, Initial residual = 0, Final residual = 0, No Iterations 0
diagonal:  Solving for Ylig, Initial residual = 0, Final residual = 0, No Iterations 0
diagonal:  Solving for Ycel, Initial residual = 0, Final residual = 0, No Iterations 0
diagonal:  Solving for Yhem, Initial residual = 0, Final residual = 0, No Iterations 0
  Evolve porosity porosity Source max/min 0.027509391 / 0
diagonal:  Solving for porosityF, Initial residual = 0, Final residual = 0, No Iterations 0
DICPCG:  Solving for Ts, Initial residual = 1.3821231e-07, Final residual = 1.3821231e-07, No Iterations 0
 pyrolysis min/max(T) = 599.99877, 599.99878
DICPCG:  Solving for Ts, Initial residual = 1.3821231e-07, Final residual = 1.3821231e-07, No Iterations 0
 pyrolysis min/max(T) = 599.99877, 599.99878

Pyrolysis: 
Total gas mass produced  [kg] = 9.6472059e-05
Total solid mass lost    [kg] = -9.6472059e-05
Total realese of pyrolysis gases  [kg/s] = 0.069006
Total heat release rate [J/s] = 117358.61

PIMPLE: Iteration 1
DILUPBiCG:  Solving for targas, Initial residual = 0, Final residual = 0, No Iterations 0
DILUPBiCG:  Solving for gas, Initial residual = 0, Final residual = 0, No Iterations 0
DILUPBiCG:  Solving for CO, Initial residual = 0, Final residual = 0, No Iterations 0
DILUPBiCG:  Solving for H2O, Initial residual = 0, Final residual = 0, No Iterations 0
DILUPBiCG:  Solving for N2, Initial residual = 0.0013215828, Final residual = 3.4907578e-10, No Iterations 1
DILUPBiCG:  Solving for O2, Initial residual = 0.00059863923, Final residual = 1.1645878e-10, No Iterations 1
DILUPBiCG:  Solving for CO2, Initial residual = 0.00066408543, Final residual = 1.5527747e-10, No Iterations 1
DILUPBiCG:  Solving for CH4, Initial residual = 0.00071180282, Final residual = 1.6687503e-10, No Iterations 1
DILUPBiCG:  Solving for H2, Initial residual = 0, Final residual = 0, No Iterations 0
 gas  targas Srho min/max   = 0, 00 max Y = 0
 gas  gas Srho min/max   = 0, 00 max Y = 0
 gas  CO Srho min/max   = 0, 00 max Y = 0
 gas  H2O Srho min/max   = 0, 00 max Y = 0
 gas  N2 Srho min/max   = 0, 00.74814818 max Y = 0.79524121
 gas  O2 Srho min/max   = -2.1679322, 00.1873347 max Y = 0.21
 gas  CO2 Srho min/max   = 0, 17.5602510 max Y = 0.056746242
 gas  CH4 Srho min/max   = 0, 1.93859720 max Y = 0.0058902827
 gas  H2 Srho min/max   = 0, 00 max Y = 0
 rho gas min/max = 0.93363185, 1.1709618
 Sh gas min/max = 0, 0
 porosity min/max = 0.3000382, 1
 heatUpGas min/max = 0, 7278576.6
 heatTransfer min/max = -0, 11153471
DILUPBiCG:  Solving for h, Initial residual = 0.00068816741, Final residual = 1.5806766e-10, No Iterations 1
 hs min/max = 1869.5448, 86541.404
 T gas min/max   = 299.99677, 383.07877
diagonal:  Solving for rho, Initial residual = 0, Final residual = 0, No Iterations 0
DILUPBiCG:  Solving for Ux, Initial residual = 0.0088246422, Final residual = 1.0185278e-10, No Iterations 1
DILUPBiCG:  Solving for Uy, Initial residual = 0.0037976736, Final residual = 3.4861731e-11, No Iterations 1
DICPCG:  Solving for p, Initial residual = 0.0040947077, Final residual = 2.1238424e-05, No Iterations 1
DICPCG:  Solving for p, Initial residual = 2.0821306e-05, Final residual = 2.0059125e-07, No Iterations 1
diagonal:  Solving for rho, Initial residual = 0, Final residual = 0, No Iterations 0
time step continuity errors : sum local = 2.138844e-05, global = 2.1388398e-05, cumulative = 0.0093161182
DICPCG:  Solving for p, Initial residual = 0.0028492143, Final residual = 1.4776234e-05, No Iterations 1
DICPCG:  Solving for p, Initial residual = 1.4573065e-05, Final residual = 1.4041405e-07, No Iterations 1
diagonal:  Solving for rho, Initial residual = 0, Final residual = 0, No Iterations 0
time step continuity errors : sum local = 2.1388408e-05, global = 2.1388365e-05, cumulative = 0.0093375066
PIMPLE: Iteration 2
DILUPBiCG:  Solving for targas, Initial residual = 0, Final residual = 0, No Iterations 0
DILUPBiCG:  Solving for gas, Initial residual = 0, Final residual = 0, No Iterations 0
DILUPBiCG:  Solving for CO, Initial residual = 0, Final residual = 0, No Iterations 0
DILUPBiCG:  Solving for H2O, Initial residual = 0, Final residual = 0, No Iterations 0
DILUPBiCG:  Solving for N2, Initial residual = 3.8648276e-05, Final residual = 7.4168759e-12, No Iterations 1
DILUPBiCG:  Solving for O2, Initial residual = 0.0038533264, Final residual = 1.8516085e-10, No Iterations 1
DILUPBiCG:  Solving for CO2, Initial residual = 5.3250409e-05, Final residual = 1.0460605e-11, No Iterations 1
DILUPBiCG:  Solving for CH4, Initial residual = 5.3343751e-05, Final residual = 1.0485311e-11, No Iterations 1
DILUPBiCG:  Solving for H2, Initial residual = 0, Final residual = 0, No Iterations 0
 gas  targas Srho min/max   = 0, 00 max Y = 0
 gas  gas Srho min/max   = 0, 00 max Y = 0
 gas  CO Srho min/max   = 0, 00 max Y = 0
 gas  H2O Srho min/max   = 0, 00 max Y = 0
 gas  N2 Srho min/max   = 0, 00.74813771 max Y = 0.79524532
 gas  O2 Srho min/max   = -2.1679322, 00.18733246 max Y = 0.21
 gas  CO2 Srho min/max   = 0, 17.5602510 max Y = 0.056746907
 gas  CH4 Srho min/max   = 0, 1.93859720 max Y = 0.0058903617
 gas  H2 Srho min/max   = 0, 00 max Y = 0
 rho gas min/max = 0.93153596, 1.170954
 Sh gas min/max = 0, 0
 porosity min/max = 0.3000382, 1
 heatUpGas min/max = 0, 7278576.6
 heatTransfer min/max = -0, 11108390
DILUPBiCG:  Solving for h, Initial residual = 1.3343511e-05, Final residual = 1.3686328e-11, No Iterations 1
 hs min/max = 1869.5448, 86524.997
 T gas min/max   = 299.99677, 383.0628
diagonal:  Solving for rho, Initial residual = 0, Final residual = 0, No Iterations 0
DILUPBiCG:  Solving for Ux, Initial residual = 0.002638752, Final residual = 3.134122e-11, No Iterations 1
DILUPBiCG:  Solving for Uy, Initial residual = 0.0011331354, Final residual = 1.0779079e-11, No Iterations 1
DICPCG:  Solving for p, Initial residual = 0.0028521355, Final residual = 1.3571374e-05, No Iterations 1
DICPCG:  Solving for p, Initial residual = 1.3388866e-05, Final residual = 1.3301553e-07, No Iterations 1
diagonal:  Solving for rho, Initial residual = 0, Final residual = 0, No Iterations 0
time step continuity errors : sum local = 2.1048716e-05, global = 2.1048673e-05, cumulative = 0.0093585552
DICPCG:  Solving for p, Initial residual = 0.0019883916, Final residual = 9.4597715e-06, No Iterations 1
DICPCG:  Solving for p, Initial residual = 9.3707128e-06, Final residual = 9.3105094e-08, No Iterations 1
diagonal:  Solving for rho, Initial residual = 0, Final residual = 0, No Iterations 0
time step continuity errors : sum local = 2.1048696e-05, global = 2.1048653e-05, cumulative = 0.0093796039
ExecutionTime = 5.1 s  ClockTime = 5 s

Courant Number mean: 2.5387888e-05 max: 0.00092481076
!@!@!@!@!!@!@ pyrolysisZone.maxTime():1.507926e-05
deltaT = 1.507926e-05
Time = 0.00132943

diagonal:  Solving for Ywood, Initial residual = 0, Final residual = 0, No Iterations 0
diagonal:  Solving for Yhum, Initial residual = 0, Final residual = 0, No Iterations 0
diagonal:  Solving for Yash, Initial residual = 0, Final residual = 0, No Iterations 0
diagonal:  Solving for Ychar1, Initial residual = 0, Final residual = 0, No Iterations 0
diagonal:  Solving for Ychar, Initial residual = 0, Final residual = 0, No Iterations 0
diagonal:  Solving for Ytarsolid, Initial residual = 0, Final residual = 0, No Iterations 0
diagonal:  Solving for Ylig, Initial residual = 0, Final residual = 0, No Iterations 0
diagonal:  Solving for Ycel, Initial residual = 0, Final residual = 0, No Iterations 0
diagonal:  Solving for Yhem, Initial residual = 0, Final residual = 0, No Iterations 0
  Evolve porosity porosity Source max/min 0.027482457 / 0
diagonal:  Solving for porosityF, Initial residual = 0, Final residual = 0, No Iterations 0
DICPCG:  Solving for Ts, Initial residual = 1.396708e-07, Final residual = 1.396708e-07, No Iterations 0
 pyrolysis min/max(T) = 599.99877, 599.99878
DICPCG:  Solving for Ts, Initial residual = 1.396708e-07, Final residual = 1.396708e-07, No Iterations 0
 pyrolysis min/max(T) = 599.99877, 599.99878

Pyrolysis: 
Total gas mass produced  [kg] = 9.7511357e-05
Total solid mass lost    [kg] = -9.7511357e-05
Total realese of pyrolysis gases  [kg/s] = 0.068922343
Total heat release rate [J/s] = 117190.14

PIMPLE: Iteration 1
DILUPBiCG:  Solving for targas, Initial residual = 0, Final residual = 0, No Iterations 0
DILUPBiCG:  Solving for gas, Initial residual = 0, Final residual = 0, No Iterations 0
DILUPBiCG:  Solving for CO, Initial residual = 0, Final residual = 0, No Iterations 0
DILUPBiCG:  Solving for H2O, Initial residual = 0, Final residual = 0, No Iterations 0
DILUPBiCG:  Solving for N2, Initial residual = 0.001354581, Final residual = 3.7632082e-10, No Iterations 1
DILUPBiCG:  Solving for O2, Initial residual = 0.00059872769, Final residual = 1.2125934e-10, No Iterations 1
DILUPBiCG:  Solving for CO2, Initial residual = 0.00065653376, Final residual = 1.6015109e-10, No Iterations 1
DILUPBiCG:  Solving for CH4, Initial residual = 0.00070408475, Final residual = 1.7223652e-10, No Iterations 1
DILUPBiCG:  Solving for H2, Initial residual = 0, Final residual = 0, No Iterations 0
 gas  targas Srho min/max   = 0, 00 max Y = 0
 gas  gas Srho min/max   = 0, 00 max Y = 0
 gas  CO Srho min/max   = 0, 00 max Y = 0
 gas  H2O Srho min/max   = 0, 00 max Y = 0
 gas  N2 Srho min/max   = 0, 00.74764549 max Y = 0.79533872
 gas  O2 Srho min/max   = -2.1655425, 00.18692679 max Y = 0.21
 gas  CO2 Srho min/max   = 0, 17.5408950 max Y = 0.057349065
 gas  CH4 Srho min/max   = 0, 1.93859570 max Y = 0.0059574358
 gas  H2 Srho min/max   = 0, 00 max Y = 0
 rho gas min/max = 0.9315723, 1.1709903
 Sh gas min/max = 0, 0
[...]
 porosity min/max = 0.3001904, 1
 heatUpGas min/max = 0, 6201719.7
 heatTransfer min/max = -0, 4764085.8
DILUPBiCG:  Solving for h, Initial residual = 7.1712797e-05, Final residual = 2.8720722e-11, No Iterations 1
 hs min/max = 1869.5584, 318785.54
 T gas min/max   = 299.99678, 592.22027
diagonal:  Solving for rho, Initial residual = 0, Final residual = 0, No Iterations 0
DILUPBiCG:  Solving for Ux, Initial residual = 0.0014371116, Final residual = 1.2529249e-11, No Iterations 1
DILUPBiCG:  Solving for Uy, Initial residual = 0.0011886133, Final residual = 8.901238e-12, No Iterations 1
DICPCG:  Solving for p, Initial residual = 0.004473108, Final residual = 1.5620842e-06, No Iterations 1
DICPCG:  Solving for p, Initial residual = 1.5622336e-06, Final residual = 3.0442187e-08, No Iterations 1
diagonal:  Solving for rho, Initial residual = 0, Final residual = 0, No Iterations 0
time step continuity errors : sum local = 3.5261733e-06, global = 2.7968087e-06, cumulative = 0.023047397
DICPCG:  Solving for p, Initial residual = 0.0031312783, Final residual = 1.0934347e-06, No Iterations 1
DICPCG:  Solving for p, Initial residual = 1.0935043e-06, Final residual = 2.1308247e-08, No Iterations 1
diagonal:  Solving for rho, Initial residual = 0, Final residual = 0, No Iterations 0
time step continuity errors : sum local = 3.5261739e-06, global = 2.7968065e-06, cumulative = 0.023050194
PIMPLE: Iteration 2
DILUPBiCG:  Solving for targas, Initial residual = 0, Final residual = 0, No Iterations 0
DILUPBiCG:  Solving for gas, Initial residual = 0, Final residual = 0, No Iterations 0
DILUPBiCG:  Solving for CO, Initial residual = 0, Final residual = 0, No Iterations 0
DILUPBiCG:  Solving for H2O, Initial residual = 0, Final residual = 0, No Iterations 0
DILUPBiCG:  Solving for N2, Initial residual = 3.5120432e-06, Final residual = 2.0674644e-12, No Iterations 1
DILUPBiCG:  Solving for O2, Initial residual = 0.00090014362, Final residual = 1.2220381e-11, No Iterations 1
DILUPBiCG:  Solving for CO2, Initial residual = 5.3214603e-07, Final residual = 5.3214603e-07, No Iterations 0
DILUPBiCG:  Solving for CH4, Initial residual = 5.1182873e-07, Final residual = 5.1182873e-07, No Iterations 0
DILUPBiCG:  Solving for H2, Initial residual = 0, Final residual = 0, No Iterations 0
 gas  targas Srho min/max   = 0, 00 max Y = 0
 gas  gas Srho min/max   = 0, 00 max Y = 0
 gas  CO Srho min/max   = 0, 00 max Y = 0
 gas  H2O Srho min/max   = 0, 00 max Y = 0
 gas  N2 Srho min/max   = 0, 00.54741018 max Y = 0.79335988
 gas  O2 Srho min/max   = -1.8073721, 00.10599469 max Y = 0.21
 gas  CO2 Srho min/max   = 0, 14.6397140 max Y = 0.30566644
 gas  CH4 Srho min/max   = 0, 1.93803070 max Y = 0.040851722
 gas  H2 Srho min/max   = 0, 00 max Y = 0
 rho gas min/max = 0.63647333, 1.1700924
 Sh gas min/max = 0, 0
 porosity min/max = 0.3001904, 1
 heatUpGas min/max = 0, 6201719.7
 heatTransfer min/max = -0, 4758994.7
DILUPBiCG:  Solving for h, Initial residual = 5.6904064e-06, Final residual = 1.8075606e-12, No Iterations 1
 hs min/max = 1869.5584, 318785.72
 T gas min/max   = 299.99678, 592.22038
diagonal:  Solving for rho, Initial residual = 0, Final residual = 0, No Iterations 0
DILUPBiCG:  Solving for Ux, Initial residual = 0.00043112772, Final residual = 3.7408231e-12, No Iterations 1
DILUPBiCG:  Solving for Uy, Initial residual = 0.00035681243, Final residual = 2.6645975e-12, No Iterations 1
DICPCG:  Solving for p, Initial residual = 0.0031323344, Final residual = 1.0883754e-06, No Iterations 1
DICPCG:  Solving for p, Initial residual = 1.0884501e-06, Final residual = 2.115639e-08, No Iterations 1
diagonal:  Solving for rho, Initial residual = 0, Final residual = 0, No Iterations 0
time step continuity errors : sum local = 3.254297e-06, global = 2.699923e-06, cumulative = 0.023052894
DICPCG:  Solving for p, Initial residual = 0.0021926846, Final residual = 7.6183912e-07, No Iterations 1
DICPCG:  Solving for p, Initial residual = 7.6187434e-07, Final residual = 1.480858e-08, No Iterations 1
diagonal:  Solving for rho, Initial residual = 0, Final residual = 0, No Iterations 0
time step continuity errors : sum local = 3.2542975e-06, global = 2.6999215e-06, cumulative = 0.023055594
ExecutionTime = 117.09 s  ClockTime = 117 s

Courant Number mean: 0.0001620727 max: 0.0016615474
!@!@!@!@!!@!@ pyrolysisZone.maxTime():1.507926e-05
deltaT = 1.507926e-05
Time = 0.00794922

DICPCG:  Solving for G, Initial residual = 0.0030320738, Final residual = 8.3135413e-05, No Iterations 2
diagonal:  Solving for Ywood, Initial residual = 0, Final residual = 0, No Iterations 0
diagonal:  Solving for Yhum, Initial residual = 0, Final residual = 0, No Iterations 0
diagonal:  Solving for Yash, Initial residual = 0, Final residual = 0, No Iterations 0
diagonal:  Solving for Ychar1, Initial residual = 0, Final residual = 0, No Iterations 0
diagonal:  Solving for Ychar, Initial residual = 0, Final residual = 0, No Iterations 0
diagonal:  Solving for Ytarsolid, Initial residual = 0, Final residual = 0, No Iterations 0
diagonal:  Solving for Ylig, Initial residual = 0, Final residual = 0, No Iterations 0
diagonal:  Solving for Ycel, Initial residual = 0, Final residual = 0, No Iterations 0
diagonal:  Solving for Yhem, Initial residual = 0, Final residual = 0, No Iterations 0
  Evolve porosity porosity Source max/min 0.023439282 / 0
diagonal:  Solving for porosityF, Initial residual = 0, Final residual = 0, No Iterations 0
DICPCG:  Solving for Ts, Initial residual = 4.421155e-07, Final residual = 4.421155e-07, No Iterations 0
 pyrolysis min/max(T) = 599.99877, 599.99878
DICPCG:  Solving for Ts, Initial residual = 4.421155e-07, Final residual = 4.421155e-07, No Iterations 0
 pyrolysis min/max(T) = 599.99877, 599.99878

Pyrolysis: 
Total gas mass produced  [kg] = 0.00048527656
Total solid mass lost    [kg] = -0.00048527656
Total realese of pyrolysis gases  [kg/s] = 0.049207663
Total heat release rate [J/s] = 77490.379

PIMPLE: Iteration 1
DILUPBiCG:  Solving for targas, Initial residual = 0, Final residual = 0, No Iterations 0
DILUPBiCG:  Solving for gas, Initial residual = 0, Final residual = 0, No Iterations 0
DILUPBiCG:  Solving for CO, Initial residual = 0, Final residual = 0, No Iterations 0
DILUPBiCG:  Solving for H2O, Initial residual = 0, Final residual = 0, No Iterations 0
DILUPBiCG:  Solving for N2, Initial residual = 0.00043063489, Final residual = 4.5864994e-10, No Iterations 1
DILUPBiCG:  Solving for O2, Initial residual = 0.00026719873, Final residual = 1.2046337e-09, No Iterations 1
DILUPBiCG:  Solving for CO2, Initial residual = 8.4393297e-05, Final residual = 5.326971e-11, No Iterations 1
DILUPBiCG:  Solving for CH4, Initial residual = 0.00010506428, Final residual = 7.3658559e-11, No Iterations 1
DILUPBiCG:  Solving for H2, Initial residual = 0, Final residual = 0, No Iterations 0
 gas  targas Srho min/max   = 0, 00 max Y = 0
 gas  gas Srho min/max   = 0, 00 max Y = 0
 gas  CO Srho min/max   = 0, 00 max Y = 0
 gas  H2O Srho min/max   = 0, 00 max Y = 0
 gas  N2 Srho min/max   = 0, 00.54704647 max Y = 0.79335776
 gas  O2 Srho min/max   = -1.8068672, 00.10584658 max Y = 0.21
 gas  CO2 Srho min/max   = 0, 14.6356240 max Y = 0.30609653
 gas  CH4 Srho min/max   = 0, 1.93802960 max Y = 0.040931665
 gas  H2 Srho min/max   = 0, 00 max Y = 0
 rho gas min/max = 0.63647271, 1.1700917
 Sh gas min/max = 0, 0
 porosity min/max = 0.30019068, 1
 heatUpGas min/max = 0, 6200210.8
 heatTransfer min/max = -0, 4758971.1
DILUPBiCG:  Solving for h, Initial residual = 7.1620911e-05, Final residual = 2.8596719e-11, No Iterations 1
 hs min/max = 1869.5585, 318999.02
 T gas min/max   = 299.99678, 592.3775
diagonal:  Solving for rho, Initial residual = 0, Final residual = 0, No Iterations 0
DILUPBiCG:  Solving for Ux, Initial residual = 0.0014361656, Final residual = 1.2474045e-11, No Iterations 1
DILUPBiCG:  Solving for Uy, Initial residual = 0.0011896095, Final residual = 8.8808628e-12, No Iterations 1
DICPCG:  Solving for p, Initial residual = 0.0044803766, Final residual = 1.5612889e-06, No Iterations 1
DICPCG:  Solving for p, Initial residual = 1.561453e-06, Final residual = 3.0393478e-08, No Iterations 1
diagonal:  Solving for rho, Initial residual = 0, Final residual = 0, No Iterations 0
time step continuity errors : sum local = 3.5235991e-06, global = 2.79269e-06, cumulative = 0.023058386
DICPCG:  Solving for p, Initial residual = 0.0031363796, Final residual = 1.0928832e-06, No Iterations 1
DICPCG:  Solving for p, Initial residual = 1.0929585e-06, Final residual = 2.1274146e-08, No Iterations 1
diagonal:  Solving for rho, Initial residual = 0, Final residual = 0, No Iterations 0
time step continuity errors : sum local = 3.5235997e-06, global = 2.7926878e-06, cumulative = 0.023061179
PIMPLE: Iteration 2
DILUPBiCG:  Solving for targas, Initial residual = 0, Final residual = 0, No Iterations 0
DILUPBiCG:  Solving for gas, Initial residual = 0, Final residual = 0, No Iterations 0
DILUPBiCG:  Solving for CO, Initial residual = 0, Final residual = 0, No Iterations 0
DILUPBiCG:  Solving for H2O, Initial residual = 0, Final residual = 0, No Iterations 0
DILUPBiCG:  Solving for N2, Initial residual = 3.5081483e-06, Final residual = 2.0691139e-12, No Iterations 1
DILUPBiCG:  Solving for O2, Initial residual = 0.0009000724, Final residual = 1.2178476e-11, No Iterations 1
DILUPBiCG:  Solving for CO2, Initial residual = 5.2908181e-07, Final residual = 5.2908181e-07, No Iterations 0
DILUPBiCG:  Solving for CH4, Initial residual = 5.088028e-07, Final residual = 5.088028e-07, No Iterations 0
DILUPBiCG:  Solving for H2, Initial residual = 0, Final residual = 0, No Iterations 0
 gas  targas Srho min/max   = 0, 00 max Y = 0
 gas  gas Srho min/max   = 0, 00 max Y = 0
 gas  CO Srho min/max   = 0, 00 max Y = 0
 gas  H2O Srho min/max   = 0, 00 max Y = 0
 gas  N2 Srho min/max   = 0, 00.54704666 max Y = 0.79335735
 gas  O2 Srho min/max   = -1.8068672, 00.10584661 max Y = 0.21
 gas  CO2 Srho min/max   = 0, 14.6356240 max Y = 0.30609808
 gas  CH4 Srho min/max   = 0, 1.93802960 max Y = 0.040932007
 gas  H2 Srho min/max   = 0, 00 max Y = 0
 rho gas min/max = 0.63635819, 1.1700911
 Sh gas min/max = 0, 0
 porosity min/max = 0.30019068, 1
 heatUpGas min/max = 0, 6200210.8
 heatTransfer min/max = -0, 4753891.2
DILUPBiCG:  Solving for h, Initial residual = 5.6920336e-06, Final residual = 1.8154204e-12, No Iterations 1
 hs min/max = 1869.5585, 318999.19
 T gas min/max   = 299.99678, 592.37759
diagonal:  Solving for rho, Initial residual = 0, Final residual = 0, No Iterations 0
DILUPBiCG:  Solving for Ux, Initial residual = 0.00043084393, Final residual = 3.7244749e-12, No Iterations 1
DILUPBiCG:  Solving for Uy, Initial residual = 0.00035710559, Final residual = 2.6584296e-12, No Iterations 1
DICPCG:  Solving for p, Initial residual = 0.003137408, Final residual = 1.0878117e-06, No Iterations 1
DICPCG:  Solving for p, Initial residual = 1.0878921e-06, Final residual = 2.1119954e-08, No Iterations 1
diagonal:  Solving for rho, Initial residual = 0, Final residual = 0, No Iterations 0
time step continuity errors : sum local = 3.2513863e-06, global = 2.6958365e-06, cumulative = 0.023063875
DICPCG:  Solving for p, Initial residual = 0.0021962406, Final residual = 7.6144638e-07, No Iterations 1
DICPCG:  Solving for p, Initial residual = 7.6148401e-07, Final residual = 1.4783073e-08, No Iterations 1
diagonal:  Solving for rho, Initial residual = 0, Final residual = 0, No Iterations 0
time step continuity errors : sum local = 3.2513867e-06, global = 2.695835e-06, cumulative = 0.023066571
ExecutionTime = 117.33 s  ClockTime = 117 s

Courant Number mean: 0.00016224059 max: 0.0016602266
!@!@!@!@!!@!@ pyrolysisZone.maxTime():1.507926e-05
deltaT = 1.507926e-05
Time = 0.0079643

diagonal:  Solving for Ywood, Initial residual = 0, Final residual = 0, No Iterations 0
diagonal:  Solving for Yhum, Initial residual = 0, Final residual = 0, No Iterations 0
diagonal:  Solving for Yash, Initial residual = 0, Final residual = 0, No Iterations 0
diagonal:  Solving for Ychar1, Initial residual = 0, Final residual = 0, No Iterations 0
diagonal:  Solving for Ychar, Initial residual = 0, Final residual = 0, No Iterations 0
diagonal:  Solving for Ytarsolid, Initial residual = 0, Final residual = 0, No Iterations 0
diagonal:  Solving for Ylig, Initial residual = 0, Final residual = 0, No Iterations 0
diagonal:  Solving for Ycel, Initial residual = 0, Final residual = 0, No Iterations 0
diagonal:  Solving for Yhem, Initial residual = 0, Final residual = 0, No Iterations 0
  Evolve porosity porosity Source max/min 0.0234336 / 0
diagonal:  Solving for porosityF, Initial residual = 0, Final residual = 0, No Iterations 0
DICPCG:  Solving for Ts, Initial residual = 4.4201715e-07, Final residual = 4.4201715e-07, No Iterations 0
 pyrolysis min/max(T) = 599.99877, 599.99878
DICPCG:  Solving for Ts, Initial residual = 4.4201715e-07, Final residual = 4.4201715e-07, No Iterations 0
 pyrolysis min/max(T) = 599.99877, 599.99878

Pyrolysis: 
Total gas mass produced  [kg] = 0.00048601801
Total solid mass lost    [kg] = -0.00048601801
Total realese of pyrolysis gases  [kg/s] = 0.049169656
Total heat release rate [J/s] = 77413.843

PIMPLE: Iteration 1
DILUPBiCG:  Solving for targas, Initial residual = 0, Final residual = 0, No Iterations 0
DILUPBiCG:  Solving for gas, Initial residual = 0, Final residual = 0, No Iterations 0
DILUPBiCG:  Solving for CO, Initial residual = 0, Final residual = 0, No Iterations 0
DILUPBiCG:  Solving for H2O, Initial residual = 0, Final residual = 0, No Iterations 0
DILUPBiCG:  Solving for N2, Initial residual = 0.00043022779, Final residual = 4.5698364e-10, No Iterations 1
DILUPBiCG:  Solving for O2, Initial residual = 0.00026702067, Final residual = 1.218537e-09, No Iterations 1
DILUPBiCG:  Solving for CO2, Initial residual = 8.4192525e-05, Final residual = 5.2985725e-11, No Iterations 1
DILUPBiCG:  Solving for CH4, Initial residual = 0.0001048577, Final residual = 7.3316203e-11, No Iterations 1
DILUPBiCG:  Solving for H2, Initial residual = 0, Final residual = 0, No Iterations 0
 gas  targas Srho min/max   = 0, 00 max Y = 0
 gas  gas Srho min/max   = 0, 00 max Y = 0
 gas  CO Srho min/max   = 0, 00 max Y = 0
 gas  H2O Srho min/max   = 0, 00 max Y = 0
 gas  N2 Srho min/max   = 0, 00.54668344 max Y = 0.79335468
 gas  O2 Srho min/max   = -1.8063632, 00.1056987 max Y = 0.21
 gas  CO2 Srho min/max   = 0, 14.6315420 max Y = 0.30652749
 gas  CH4 Srho min/max   = 0, 1.93802850 max Y = 0.041011934
 gas  H2 Srho min/max   = 0, 00 max Y = 0
 rho gas min/max = 0.63635759, 1.1700901
 Sh gas min/max = 0, 0
 porosity min/max = 0.30019097, 1
 heatUpGas min/max = 0, 6198704.7
 heatTransfer min/max = -0, 4753866.7
DILUPBiCG:  Solving for h, Initial residual = 7.146518e-05, Final residual = 2.8409081e-11, No Iterations 1
 hs min/max = 1869.5586, 319211.63
 T gas min/max   = 299.99678, 592.5339
diagonal:  Solving for rho, Initial residual = 0, Final residual = 0, No Iterations 0
DILUPBiCG:  Solving for Ux, Initial residual = 0.0014352189, Final residual = 1.2419355e-11, No Iterations 1
DILUPBiCG:  Solving for Uy, Initial residual = 0.0011905961, Final residual = 8.8601962e-12, No Iterations 1
DICPCG:  Solving for p, Initial residual = 0.0044875455, Final residual = 1.5604202e-06, No Iterations 1
DICPCG:  Solving for p, Initial residual = 1.5605921e-06, Final residual = 3.0341456e-08, No Iterations 1
diagonal:  Solving for rho, Initial residual = 0, Final residual = 0, No Iterations 0
time step continuity errors : sum local = 3.5167274e-06, global = 2.7842374e-06, cumulative = 0.023069355
DICPCG:  Solving for p, Initial residual = 0.0031414043, Final residual = 1.0922776e-06, No Iterations 1
DICPCG:  Solving for p, Initial residual = 1.0923561e-06, Final residual = 2.1237728e-08, No Iterations 1
diagonal:  Solving for rho, Initial residual = 0, Final residual = 0, No Iterations 0
time step continuity errors : sum local = 3.5167281e-06, global = 2.7842352e-06, cumulative = 0.023072139
PIMPLE: Iteration 2
DILUPBiCG:  Solving for targas, Initial residual = 0, Final residual = 0, No Iterations 0
DILUPBiCG:  Solving for gas, Initial residual = 0, Final residual = 0, No Iterations 0
DILUPBiCG:  Solving for CO, Initial residual = 0, Final residual = 0, No Iterations 0
DILUPBiCG:  Solving for H2O, Initial residual = 0, Final residual = 0, No Iterations 0
DILUPBiCG:  Solving for N2, Initial residual = 3.5044579e-06, Final residual = 2.0682526e-12, No Iterations 1
DILUPBiCG:  Solving for O2, Initial residual = 0.00090001232, Final residual = 1.2137437e-11, No Iterations 1
DILUPBiCG:  Solving for CO2, Initial residual = 5.2596724e-07, Final residual = 5.2596724e-07, No Iterations 0
DILUPBiCG:  Solving for CH4, Initial residual = 5.0573923e-07, Final residual = 5.0573923e-07, No Iterations 0
DILUPBiCG:  Solving for H2, Initial residual = 0, Final residual = 0, No Iterations 0
 gas  targas Srho min/max   = 0, 00 max Y = 0
 gas  gas Srho min/max   = 0, 00 max Y = 0
 gas  CO Srho min/max   = 0, 00 max Y = 0
 gas  H2O Srho min/max   = 0, 00 max Y = 0
 gas  N2 Srho min/max   = 0, 00.54668363 max Y = 0.79335428
 gas  O2 Srho min/max   = -1.8063632, 00.10569874 max Y = 0.21
 gas  CO2 Srho min/max   = 0, 14.6315420 max Y = 0.30652903
 gas  CH4 Srho min/max   = 0, 1.93802850 max Y = 0.04101227
 gas  H2 Srho min/max   = 0, 00 max Y = 0
 rho gas min/max = 0.63624387, 1.1700895
 Sh gas min/max = 0, 0
 porosity min/max = 0.30019097, 1
 heatUpGas min/max = 0, 6198704.7
 heatTransfer min/max = -0, 4748803.8
DILUPBiCG:  Solving for h, Initial residual = 5.693674e-06, Final residual = 1.847242e-12, No Iterations 1
 hs min/max = 1869.5585, 319211.79
 T gas min/max   = 299.99678, 592.53399
diagonal:  Solving for rho, Initial residual = 0, Final residual = 0, No Iterations 0
DILUPBiCG:  Solving for Ux, Initial residual = 0.0004305609, Final residual = 3.7080675e-12, No Iterations 1
DILUPBiCG:  Solving for Uy, Initial residual = 0.00035741377, Final residual = 2.6521797e-12, No Iterations 1
DICPCG:  Solving for p, Initial residual = 0.0031424093, Final residual = 1.0871748e-06, No Iterations 1
DICPCG:  Solving for p, Initial residual = 1.0872584e-06, Final residual = 2.1080272e-08, No Iterations 1
diagonal:  Solving for rho, Initial residual = 0, Final residual = 0, No Iterations 0
time step continuity errors : sum local = 3.2441804e-06, global = 2.687425e-06, cumulative = 0.023074827
DICPCG:  Solving for p, Initial residual = 0.0021997455, Final residual = 7.6100217e-07, No Iterations 1
DICPCG:  Solving for p, Initial residual = 7.6104062e-07, Final residual = 1.4755288e-08, No Iterations 1
diagonal:  Solving for rho, Initial residual = 0, Final residual = 0, No Iterations 0
time step continuity errors : sum local = 3.2441809e-06, global = 2.6874235e-06, cumulative = 0.023077514
ExecutionTime = 117.58 s  ClockTime = 118 s

Courant Number mean: 0.00016240799 max: 0.0016589032
!@!@!@!@!!@!@ pyrolysisZone.maxTime():1.507926e-05
deltaT = 1.507926e-05
Time = 0.00797938

diagonal:  Solving for Ywood, Initial residual = 0, Final residual = 0, No Iterations 0
diagonal:  Solving for Yhum, Initial residual = 0, Final residual = 0, No Iterations 0
diagonal:  Solving for Yash, Initial residual = 0, Final residual = 0, No Iterations 0
diagonal:  Solving for Ychar1, Initial residual = 0, Final residual = 0, No Iterations 0
diagonal:  Solving for Ychar, Initial residual = 0, Final residual = 0, No Iterations 0
diagonal:  Solving for Ytarsolid, Initial residual = 0, Final residual = 0, No Iterations 0
diagonal:  Solving for Ylig, Initial residual = 0, Final residual = 0, No Iterations 0
diagonal:  Solving for Ycel, Initial residual = 0, Final residual = 0, No Iterations 0
diagonal:  Solving for Yhem, Initial residual = 0, Final residual = 0, No Iterations 0
  Evolve porosity porosity Source max/min 0.023427927 / 0
diagonal:  Solving for porosityF, Initial residual = 0, Final residual = 0, No Iterations 0
